* NGSPICE file created from heichips25_template.ext - technology: ihp-sg13g2

* Black-box entry subcircuit for sg13g2_decap_8 abstract view
.subckt sg13g2_decap_8 VDD VSS
.ends

* Black-box entry subcircuit for sg13g2_dfrbpq_1 abstract view
.subckt sg13g2_dfrbpq_1 RESET_B VSS VDD D Q CLK
.ends

* Black-box entry subcircuit for sg13g2_fill_1 abstract view
.subckt sg13g2_fill_1 VDD VSS
.ends

* Black-box entry subcircuit for sg13g2_mux2_1 abstract view
.subckt sg13g2_mux2_1 A0 A1 S X VDD VSS
.ends

* Black-box entry subcircuit for sg13g2_nand3b_1 abstract view
.subckt sg13g2_nand3b_1 B C Y VDD VSS A_N
.ends

* Black-box entry subcircuit for sg13g2_decap_4 abstract view
.subckt sg13g2_decap_4 VDD VSS
.ends

* Black-box entry subcircuit for sg13g2_fill_2 abstract view
.subckt sg13g2_fill_2 VDD VSS
.ends

* Black-box entry subcircuit for sg13g2_tielo abstract view
.subckt sg13g2_tielo VDD VSS L_LO
.ends

* Black-box entry subcircuit for sg13g2_buf_1 abstract view
.subckt sg13g2_buf_1 A X VDD VSS
.ends

* Black-box entry subcircuit for sg13g2_inv_1 abstract view
.subckt sg13g2_inv_1 VDD Y A VSS
.ends

* Black-box entry subcircuit for sg13g2_buf_8 abstract view
.subckt sg13g2_buf_8 A X VDD VSS
.ends

* Black-box entry subcircuit for delay_line abstract view
.subckt delay_line VDD VSS clk clk_delayed delay[0] delay[1] delay[2] delay[3]
.ends

* Black-box entry subcircuit for sg13g2_a21o_1 abstract view
.subckt sg13g2_a21o_1 A2 A1 B1 X VDD VSS
.ends

* Black-box entry subcircuit for sg13g2_buf_16 abstract view
.subckt sg13g2_buf_16 X A VDD VSS
.ends

* Black-box entry subcircuit for sg13g2_o21ai_1 abstract view
.subckt sg13g2_o21ai_1 B1 VDD Y VSS A1 A2
.ends

* Black-box entry subcircuit for sg13g2_nand4_1 abstract view
.subckt sg13g2_nand4_1 B C A Y VDD VSS D
.ends

* Black-box entry subcircuit for sg13g2_nor2_1 abstract view
.subckt sg13g2_nor2_1 A B Y VDD VSS
.ends

* Black-box entry subcircuit for sg13g2_a22oi_1 abstract view
.subckt sg13g2_a22oi_1 Y B1 B2 A2 A1 VDD VSS
.ends

* Black-box entry subcircuit for sg13g2_a21oi_1 abstract view
.subckt sg13g2_a21oi_1 VSS VDD A1 A2 Y B1
.ends

* Black-box entry subcircuit for sg13g2_and3_1 abstract view
.subckt sg13g2_and3_1 X A B C VDD VSS
.ends

* Black-box entry subcircuit for sg13g2_and2_1 abstract view
.subckt sg13g2_and2_1 A B X VDD VSS
.ends

* Black-box entry subcircuit for adc abstract view
.subckt adc VDD VSS analog_in[0] analog_in[1] analog_in[2] analog_in[3] analog_in[4]
+ analog_in[5] analog_in[6] analog_in[7] clk data_out[0] data_out[1] data_out[2] data_out[3]
+ data_out[4] data_out[5] data_out[6] data_out[7] ready start
.ends

* Black-box entry subcircuit for multimode_dll abstract view
.subckt multimode_dll VDD VSS bias clk0_out clk0_phase_sel[0] clk0_phase_sel[1] clk0_phase_sel[2]
+ clk0_phase_sel[3] clk0_phase_sel[4] clk1_out clk1_phase_sel[0] clk1_phase_sel[1]
+ clk1_phase_sel[2] clk1_phase_sel[3] clk1_phase_sel[4] clk2_out clk2_phase_sel[0]
+ clk2_phase_sel[1] clk2_phase_sel[2] clk2_phase_sel[3] clk2_phase_sel[4] dco enable
+ ext_trim[0] ext_trim[10] ext_trim[11] ext_trim[12] ext_trim[13] ext_trim[14] ext_trim[15]
+ ext_trim[16] ext_trim[17] ext_trim[18] ext_trim[19] ext_trim[1] ext_trim[20] ext_trim[21]
+ ext_trim[22] ext_trim[23] ext_trim[24] ext_trim[25] ext_trim[2] ext_trim[3] ext_trim[4]
+ ext_trim[5] ext_trim[6] ext_trim[7] ext_trim[8] ext_trim[9] f_clk0_divider[0] f_clk0_divider[1]
+ f_clk0_divider[2] f_clk0_divider[3] f_clk0_divider[4] f_clk1_divider[0] f_clk1_divider[1]
+ f_clk1_divider[2] f_clk1_divider[3] f_clk1_divider[4] f_clk2_divider[0] f_clk2_divider[1]
+ f_clk2_divider[2] f_clk2_divider[3] f_clk2_divider[4] f_osc_multiply_factor[0] f_osc_multiply_factor[1]
+ f_osc_multiply_factor[2] f_osc_multiply_factor[3] f_osc_multiply_factor[4] mode_xor[0]
+ mode_xor[1] mode_xor[2] osc osc_out resetb stable
.ends

* Black-box entry subcircuit for sg13g2_xor2_1 abstract view
.subckt sg13g2_xor2_1 B A X VDD VSS
.ends

* Black-box entry subcircuit for sg13g2_nor3_1 abstract view
.subckt sg13g2_nor3_1 A B C Y VDD VSS
.ends

* Black-box entry subcircuit for sg13g2_nor2b_1 abstract view
.subckt sg13g2_nor2b_1 A B_N Y VDD VSS
.ends

* Black-box entry subcircuit for sg13g2_and4_1 abstract view
.subckt sg13g2_and4_1 A B C D X VDD VSS
.ends

* Black-box entry subcircuit for sg13g2_nand3_1 abstract view
.subckt sg13g2_nand3_1 B C A Y VDD VSS
.ends

* Black-box entry subcircuit for sg13g2_nand2b_1 abstract view
.subckt sg13g2_nand2b_1 Y B A_N VDD VSS
.ends

* Black-box entry subcircuit for sg13g2_antennanp abstract view
.subckt sg13g2_antennanp VDD VSS A
.ends

* Black-box entry subcircuit for sg13g2_nand2_1 abstract view
.subckt sg13g2_nand2_1 Y A B VDD VSS
.ends

.subckt heichips25_template VGND VPWR clk ena rst_n ui_in[0] ui_in[1] ui_in[2] ui_in[3]
+ ui_in[4] ui_in[5] ui_in[6] ui_in[7] uio_in[0] uio_in[1] uio_in[2] uio_in[3] uio_in[4]
+ uio_in[5] uio_in[6] uio_in[7] uio_oe[0] uio_oe[1] uio_oe[2] uio_oe[3] uio_oe[4]
+ uio_oe[5] uio_oe[6] uio_oe[7] uio_out[0] uio_out[1] uio_out[2] uio_out[3] uio_out[4]
+ uio_out[5] uio_out[6] uio_out[7] uo_out[0] uo_out[1] uo_out[2] uo_out[3] uo_out[4]
+ uo_out[5] uo_out[6] uo_out[7]
XFILLER_11_807 VPWR VGND sg13g2_decap_8
XFILLER_7_7 VPWR VGND sg13g2_decap_8
XFILLER_27_940 VPWR VGND sg13g2_decap_8
XFILLER_46_759 VPWR VGND sg13g2_decap_8
XFILLER_45_203 VPWR VGND sg13g2_decap_8
X_294_ net29 VGND VPWR _054_ data\[47\] clknet_4_3_0_clk_regs sg13g2_dfrbpq_1
XFILLER_6_800 VPWR VGND sg13g2_decap_8
XFILLER_42_95 VPWR VGND sg13g2_fill_1
XFILLER_49_564 VPWR VGND sg13g2_decap_8
XFILLER_3_67 VPWR VGND sg13g2_decap_8
XFILLER_45_792 VPWR VGND sg13g2_decap_8
XFILLER_5_4 VPWR VGND sg13g2_decap_8
XFILLER_46_556 VPWR VGND sg13g2_decap_8
XFILLER_42_740 VPWR VGND sg13g2_decap_8
X_277_ net30 VGND VPWR _037_ data\[30\] clknet_4_2_0_clk_regs sg13g2_dfrbpq_1
XFILLER_38_4 VPWR VGND sg13g2_fill_1
XFILLER_49_361 VPWR VGND sg13g2_decap_8
XFILLER_0_839 VPWR VGND sg13g2_decap_8
XFILLER_43_559 VPWR VGND sg13g2_decap_8
X_200_ data\[39\] data\[40\] net17 _047_ VPWR VGND sg13g2_mux2_1
X_131_ clk_delayed net5 _095_ VPWR VGND net4 sg13g2_nand3b_1
XFILLER_2_165 VPWR VGND sg13g2_decap_4
XFILLER_3_655 VPWR VGND sg13g2_decap_8
XFILLER_47_854 VPWR VGND sg13g2_decap_8
XFILLER_0_35 VPWR VGND sg13g2_decap_8
XFILLER_46_353 VPWR VGND sg13g2_decap_8
XFILLER_30_765 VPWR VGND sg13g2_decap_8
XFILLER_9_11 VPWR VGND sg13g2_decap_8
XFILLER_38_821 VPWR VGND sg13g2_decap_8
XFILLER_0_636 VPWR VGND sg13g2_decap_8
XFILLER_29_821 VPWR VGND sg13g2_decap_8
XFILLER_12_765 VPWR VGND sg13g2_decap_8
XFILLER_3_430 VPWR VGND sg13g2_fill_2
XFILLER_3_496 VPWR VGND sg13g2_fill_2
XFILLER_47_651 VPWR VGND sg13g2_decap_8
XFILLER_46_150 VPWR VGND sg13g2_decap_8
XFILLER_26_835 VPWR VGND sg13g2_decap_8
XFILLER_48_448 VPWR VGND sg13g2_decap_8
XFILLER_29_52 VPWR VGND sg13g2_decap_4
XFILLER_32_849 VPWR VGND sg13g2_decap_8
XFILLER_44_665 VPWR VGND sg13g2_decap_8
XFILLER_45_84 VPWR VGND sg13g2_decap_8
XFILLER_43_186 VPWR VGND sg13g2_decap_8
XFILLER_4_772 VPWR VGND sg13g2_decap_8
XFILLER_20_4 VPWR VGND sg13g2_fill_2
XFILLER_2_709 VPWR VGND sg13g2_decap_8
Xheichips25_template_43 VPWR VGND uio_oe[1] sg13g2_tielo
Xheichips25_template_54 VPWR VGND uo_out[4] sg13g2_tielo
Xoutput7 net7 uio_out[1] VPWR VGND sg13g2_buf_1
XFILLER_49_746 VPWR VGND sg13g2_decap_8
XFILLER_0_263 VPWR VGND sg13g2_decap_8
XFILLER_1_797 VPWR VGND sg13g2_decap_8
XFILLER_48_245 VPWR VGND sg13g2_decap_8
XFILLER_44_484 VPWR VGND sg13g2_decap_8
XFILLER_9_842 VPWR VGND sg13g2_decap_4
XFILLER_46_738 VPWR VGND sg13g2_decap_8
XFILLER_27_996 VPWR VGND sg13g2_decap_8
XFILLER_45_259 VPWR VGND sg13g2_decap_8
XFILLER_6_845 VPWR VGND sg13g2_fill_2
X_293_ net31 VGND VPWR _053_ data\[46\] clknet_4_1_0_clk_regs sg13g2_dfrbpq_1
XFILLER_3_46 VPWR VGND sg13g2_decap_8
XFILLER_1_583 VPWR VGND sg13g2_decap_8
XFILLER_45_771 VPWR VGND sg13g2_decap_8
XFILLER_49_543 VPWR VGND sg13g2_decap_8
XFILLER_44_292 VPWR VGND sg13g2_fill_2
XFILLER_36_793 VPWR VGND sg13g2_decap_8
XFILLER_3_837 VPWR VGND sg13g2_decap_8
XFILLER_46_535 VPWR VGND sg13g2_decap_8
XFILLER_42_796 VPWR VGND sg13g2_decap_8
XFILLER_27_793 VPWR VGND sg13g2_decap_8
X_276_ net34 VGND VPWR _036_ data\[29\] clknet_4_9_0_clk_regs sg13g2_dfrbpq_1
XFILLER_49_340 VPWR VGND sg13g2_decap_8
XFILLER_18_793 VPWR VGND sg13g2_decap_8
XFILLER_0_818 VPWR VGND sg13g2_decap_4
X_130_ VPWR net12 _094_ VGND sg13g2_inv_1
XFILLER_3_634 VPWR VGND sg13g2_decap_8
XFILLER_47_833 VPWR VGND sg13g2_decap_8
XFILLER_2_144 VPWR VGND sg13g2_decap_8
XFILLER_48_84 VPWR VGND sg13g2_decap_8
XFILLER_0_14 VPWR VGND sg13g2_decap_8
XFILLER_46_332 VPWR VGND sg13g2_decap_8
XFILLER_42_582 VPWR VGND sg13g2_decap_8
X_259_ net37 VGND VPWR _019_ data\[12\] clknet_4_7_0_clk_regs sg13g2_dfrbpq_1
XFILLER_38_800 VPWR VGND sg13g2_decap_8
XFILLER_29_800 VPWR VGND sg13g2_decap_8
XFILLER_0_615 VPWR VGND sg13g2_decap_8
XFILLER_35_814 VPWR VGND sg13g2_decap_8
XFILLER_47_630 VPWR VGND sg13g2_decap_8
XFILLER_41_0 VPWR VGND sg13g2_decap_8
XFILLER_26_814 VPWR VGND sg13g2_decap_8
XFILLER_41_828 VPWR VGND sg13g2_decap_8
XFILLER_48_427 VPWR VGND sg13g2_decap_8
XFILLER_32_828 VPWR VGND sg13g2_decap_8
XFILLER_44_644 VPWR VGND sg13g2_decap_8
XFILLER_17_847 VPWR VGND sg13g2_fill_1
XFILLER_25_880 VPWR VGND sg13g2_decap_8
XFILLER_45_63 VPWR VGND sg13g2_decap_8
XFILLER_23_828 VPWR VGND sg13g2_decap_8
Xheichips25_template_44 VPWR VGND uio_oe[2] sg13g2_tielo
Xheichips25_template_55 VPWR VGND uo_out[5] sg13g2_tielo
XFILLER_15_55 VPWR VGND sg13g2_fill_1
XFILLER_15_44 VPWR VGND sg13g2_decap_8
XFILLER_49_725 VPWR VGND sg13g2_decap_8
Xoutput10 net10 uio_out[4] VPWR VGND sg13g2_buf_1
Xoutput8 net8 uio_out[2] VPWR VGND sg13g2_buf_1
XFILLER_1_776 VPWR VGND sg13g2_decap_8
XFILLER_48_224 VPWR VGND sg13g2_decap_8
XFILLER_9_821 VPWR VGND sg13g2_decap_8
XFILLER_48_791 VPWR VGND sg13g2_decap_8
XFILLER_2_507 VPWR VGND sg13g2_fill_2
XFILLER_46_717 VPWR VGND sg13g2_decap_8
XFILLER_45_238 VPWR VGND sg13g2_decap_8
XFILLER_27_975 VPWR VGND sg13g2_decap_8
XFILLER_42_42 VPWR VGND sg13g2_decap_8
X_292_ net33 VGND VPWR _052_ data\[45\] clknet_4_6_0_clk_regs sg13g2_dfrbpq_1
XFILLER_10_842 VPWR VGND sg13g2_decap_4
XFILLER_49_522 VPWR VGND sg13g2_decap_8
XFILLER_3_25 VPWR VGND sg13g2_decap_8
XFILLER_45_750 VPWR VGND sg13g2_decap_8
XFILLER_49_599 VPWR VGND sg13g2_decap_8
XFILLER_44_271 VPWR VGND sg13g2_decap_8
XFILLER_36_772 VPWR VGND sg13g2_decap_8
XFILLER_3_816 VPWR VGND sg13g2_decap_8
XFILLER_27_772 VPWR VGND sg13g2_decap_8
XFILLER_46_514 VPWR VGND sg13g2_decap_8
XFILLER_37_20 VPWR VGND sg13g2_fill_1
XFILLER_42_775 VPWR VGND sg13g2_decap_8
X_275_ net34 VGND VPWR _035_ data\[28\] clknet_4_9_0_clk_regs sg13g2_dfrbpq_1
XFILLER_45_7 VPWR VGND sg13g2_decap_8
XFILLER_49_396 VPWR VGND sg13g2_decap_8
XFILLER_33_786 VPWR VGND sg13g2_decap_8
XFILLER_18_772 VPWR VGND sg13g2_decap_8
XFILLER_24_786 VPWR VGND sg13g2_decap_8
XFILLER_2_123 VPWR VGND sg13g2_decap_8
XFILLER_3_613 VPWR VGND sg13g2_decap_8
XFILLER_47_812 VPWR VGND sg13g2_decap_8
XFILLER_48_63 VPWR VGND sg13g2_decap_8
XFILLER_46_311 VPWR VGND sg13g2_decap_8
XFILLER_42_561 VPWR VGND sg13g2_decap_8
XFILLER_15_786 VPWR VGND sg13g2_decap_8
XFILLER_15_797 VPWR VGND sg13g2_fill_1
XFILLER_46_388 VPWR VGND sg13g2_decap_8
X_189_ data\[28\] data\[29\] net19 _036_ VPWR VGND sg13g2_mux2_1
X_258_ net36 VGND VPWR _018_ data\[11\] clknet_4_7_0_clk_regs sg13g2_dfrbpq_1
XFILLER_38_856 VPWR VGND sg13g2_decap_4
Xclkbuf_4_9_0_clk_regs clknet_0_clk_regs clknet_4_9_0_clk_regs VPWR VGND sg13g2_buf_8
XFILLER_49_193 VPWR VGND sg13g2_decap_8
XFILLER_29_856 VPWR VGND sg13g2_decap_4
XFILLER_48_609 VPWR VGND sg13g2_decap_8
XFILLER_47_119 VPWR VGND sg13g2_decap_8
XFILLER_44_826 VPWR VGND sg13g2_decap_8
XFILLER_43_303 VPWR VGND sg13g2_decap_4
XFILLER_1_0 VPWR VGND sg13g2_decap_8
XFILLER_3_432 VPWR VGND sg13g2_fill_1
XFILLER_3_498 VPWR VGND sg13g2_fill_1
XFILLER_47_686 VPWR VGND sg13g2_decap_8
XFILLER_46_185 VPWR VGND sg13g2_decap_8
XFILLER_7_793 VPWR VGND sg13g2_decap_8
XFILLER_34_0 VPWR VGND sg13g2_decap_4
XFILLER_41_807 VPWR VGND sg13g2_decap_8
XFILLER_1_91 VPWR VGND sg13g2_decap_8
XFILLER_0_402 VPWR VGND sg13g2_fill_2
XFILLER_44_623 VPWR VGND sg13g2_decap_8
XFILLER_48_406 VPWR VGND sg13g2_decap_8
XFILLER_0_479 VPWR VGND sg13g2_fill_2
XFILLER_17_826 VPWR VGND sg13g2_decap_8
XFILLER_40_851 VPWR VGND sg13g2_decap_8
XFILLER_32_807 VPWR VGND sg13g2_decap_8
XFILLER_45_42 VPWR VGND sg13g2_decap_8
XFILLER_43_133 VPWR VGND sg13g2_decap_4
XFILLER_43_166 VPWR VGND sg13g2_fill_2
XFILLER_6_25 VPWR VGND sg13g2_decap_4
XFILLER_3_284 VPWR VGND sg13g2_decap_4
XFILLER_23_807 VPWR VGND sg13g2_decap_8
XFILLER_47_483 VPWR VGND sg13g2_decap_8
Xheichips25_template_45 VPWR VGND uio_oe[3] sg13g2_tielo
Xheichips25_template_56 VPWR VGND uo_out[6] sg13g2_tielo
XFILLER_14_807 VPWR VGND sg13g2_decap_8
XFILLER_31_55 VPWR VGND sg13g2_fill_1
XFILLER_49_704 VPWR VGND sg13g2_decap_8
XFILLER_0_221 VPWR VGND sg13g2_decap_8
Xoutput11 net11 uio_out[5] VPWR VGND sg13g2_buf_1
Xoutput9 net9 uio_out[3] VPWR VGND sg13g2_buf_1
XFILLER_48_203 VPWR VGND sg13g2_decap_8
XFILLER_0_298 VPWR VGND sg13g2_fill_1
XFILLER_44_464 VPWR VGND sg13g2_fill_2
XFILLER_9_800 VPWR VGND sg13g2_decap_8
XFILLER_48_770 VPWR VGND sg13g2_decap_8
XFILLER_47_280 VPWR VGND sg13g2_decap_8
XFILLER_27_954 VPWR VGND sg13g2_decap_8
XFILLER_26_11 VPWR VGND sg13g2_decap_8
XFILLER_45_217 VPWR VGND sg13g2_decap_8
XFILLER_10_821 VPWR VGND sg13g2_decap_8
XFILLER_42_21 VPWR VGND sg13g2_decap_8
XFILLER_42_76 VPWR VGND sg13g2_decap_8
X_291_ net33 VGND VPWR _051_ data\[44\] clknet_4_6_0_clk_regs sg13g2_dfrbpq_1
Xclkbuf_4_11_0_clk_regs clknet_0_clk_regs clknet_4_11_0_clk_regs VPWR VGND sg13g2_buf_8
XFILLER_6_814 VPWR VGND sg13g2_decap_8
XFILLER_6_847 VPWR VGND sg13g2_fill_1
XFILLER_49_578 VPWR VGND sg13g2_decap_8
XFILLER_49_501 VPWR VGND sg13g2_decap_8
XFILLER_44_250 VPWR VGND sg13g2_decap_8
XFILLER_44_294 VPWR VGND sg13g2_fill_1
XFILLER_42_209 VPWR VGND sg13g2_decap_4
XFILLER_42_754 VPWR VGND sg13g2_decap_8
X_274_ net34 VGND VPWR _034_ data\[27\] clknet_4_8_0_clk_regs sg13g2_dfrbpq_1
XFILLER_49_375 VPWR VGND sg13g2_decap_8
XFILLER_33_765 VPWR VGND sg13g2_decap_8
XFILLER_24_765 VPWR VGND sg13g2_decap_8
XFILLER_2_179 VPWR VGND sg13g2_decap_8
XFILLER_2_102 VPWR VGND sg13g2_decap_8
XFILLER_3_4 VPWR VGND sg13g2_decap_8
XFILLER_3_669 VPWR VGND sg13g2_decap_8
XFILLER_0_49 VPWR VGND sg13g2_decap_8
XFILLER_48_42 VPWR VGND sg13g2_decap_8
XFILLER_46_367 VPWR VGND sg13g2_decap_8
XFILLER_9_25 VPWR VGND sg13g2_decap_4
XFILLER_15_765 VPWR VGND sg13g2_decap_8
X_326_ net32 VGND VPWR _086_ u_shift_reg.locked clknet_4_1_0_clk_regs sg13g2_dfrbpq_1
XFILLER_30_779 VPWR VGND sg13g2_decap_8
X_188_ data\[27\] data\[28\] net19 _035_ VPWR VGND sg13g2_mux2_1
X_257_ net36 VGND VPWR _017_ data\[10\] clknet_4_11_0_clk_regs sg13g2_dfrbpq_1
XFILLER_38_835 VPWR VGND sg13g2_decap_8
XFILLER_49_172 VPWR VGND sg13g2_decap_8
XFILLER_44_805 VPWR VGND sg13g2_decap_8
XFILLER_29_835 VPWR VGND sg13g2_decap_8
XFILLER_34_44 VPWR VGND sg13g2_decap_8
XFILLER_34_55 VPWR VGND sg13g2_fill_1
XFILLER_12_779 VPWR VGND sg13g2_decap_8
XFILLER_3_466 VPWR VGND sg13g2_decap_4
XFILLER_47_665 VPWR VGND sg13g2_decap_8
XFILLER_46_164 VPWR VGND sg13g2_decap_8
XFILLER_43_860 VPWR VGND sg13g2_fill_2
X_309_ net28 VGND VPWR _069_ data\[62\] clknet_4_3_0_clk_regs sg13g2_dfrbpq_1
XFILLER_7_772 VPWR VGND sg13g2_decap_8
XFILLER_27_0 VPWR VGND sg13g2_decap_8
XFILLER_26_849 VPWR VGND sg13g2_decap_8
XFILLER_1_70 VPWR VGND sg13g2_decap_8
XFILLER_20_24 VPWR VGND sg13g2_decap_4
XFILLER_44_602 VPWR VGND sg13g2_decap_8
XFILLER_17_805 VPWR VGND sg13g2_decap_8
XFILLER_43_112 VPWR VGND sg13g2_decap_8
XFILLER_45_21 VPWR VGND sg13g2_decap_8
XFILLER_44_679 VPWR VGND sg13g2_decap_8
XFILLER_45_98 VPWR VGND sg13g2_decap_8
XFILLER_3_263 VPWR VGND sg13g2_decap_8
XFILLER_4_786 VPWR VGND sg13g2_decap_8
XFILLER_47_462 VPWR VGND sg13g2_decap_8
Xheichips25_template_46 VPWR VGND uio_oe[4] sg13g2_tielo
Xheichips25_template_57 VPWR VGND uo_out[7] sg13g2_tielo
Xoutput12 net12 uio_out[6] VPWR VGND sg13g2_buf_1
XFILLER_0_277 VPWR VGND sg13g2_decap_8
XFILLER_1_723 VPWR VGND sg13g2_decap_8
XFILLER_48_259 VPWR VGND sg13g2_decap_8
XFILLER_44_443 VPWR VGND sg13g2_decap_8
XFILLER_44_498 VPWR VGND sg13g2_decap_8
XFILLER_2_509 VPWR VGND sg13g2_fill_1
XFILLER_27_933 VPWR VGND sg13g2_decap_8
XFILLER_39_793 VPWR VGND sg13g2_decap_8
XFILLER_10_800 VPWR VGND sg13g2_decap_8
X_290_ net33 VGND VPWR _050_ data\[43\] clknet_4_5_0_clk_regs sg13g2_dfrbpq_1
XFILLER_49_557 VPWR VGND sg13g2_decap_8
XFILLER_1_597 VPWR VGND sg13g2_decap_8
XFILLER_45_785 VPWR VGND sg13g2_decap_8
XFILLER_46_549 VPWR VGND sg13g2_decap_8
XFILLER_42_733 VPWR VGND sg13g2_decap_8
XFILLER_42_711 VPWR VGND sg13g2_fill_2
XFILLER_42_700 VPWR VGND sg13g2_decap_8
X_273_ net35 VGND VPWR _033_ data\[26\] clknet_4_8_0_clk_regs sg13g2_dfrbpq_1
XFILLER_1_383 VPWR VGND sg13g2_fill_2
XFILLER_45_582 VPWR VGND sg13g2_decap_8
XFILLER_49_354 VPWR VGND sg13g2_decap_8
XFILLER_2_158 VPWR VGND sg13g2_decap_8
XFILLER_3_648 VPWR VGND sg13g2_decap_8
XFILLER_48_21 VPWR VGND sg13g2_decap_8
XFILLER_47_847 VPWR VGND sg13g2_decap_8
XFILLER_0_28 VPWR VGND sg13g2_decap_8
XFILLER_48_98 VPWR VGND sg13g2_decap_8
XFILLER_46_346 VPWR VGND sg13g2_decap_8
X_325_ net41 VGND VPWR _085_ data\[78\] clknet_4_15_0_clk_regs sg13g2_dfrbpq_1
XFILLER_42_596 VPWR VGND sg13g2_decap_8
X_187_ data\[26\] data\[27\] net19 _034_ VPWR VGND sg13g2_mux2_1
X_256_ net39 VGND VPWR _016_ data\[9\] clknet_4_10_0_clk_regs sg13g2_dfrbpq_1
XFILLER_38_814 VPWR VGND sg13g2_decap_8
XFILLER_2_681 VPWR VGND sg13g2_decap_8
XFILLER_49_151 VPWR VGND sg13g2_decap_8
XFILLER_0_629 VPWR VGND sg13g2_decap_8
Xu_delay_line VPWR VGND clknet_1_1__leaf_clk clk_delayed data\[75\] data\[76\] data\[77\]
+ data\[78\] delay_line
XFILLER_29_814 VPWR VGND sg13g2_decap_8
XFILLER_34_23 VPWR VGND sg13g2_decap_4
XFILLER_3_423 VPWR VGND sg13g2_decap_8
Xclkload0 VPWR clkload0/Y clknet_4_1_0_clk_regs VGND sg13g2_inv_1
XFILLER_3_489 VPWR VGND sg13g2_decap_8
XFILLER_35_828 VPWR VGND sg13g2_decap_8
XFILLER_47_644 VPWR VGND sg13g2_decap_8
XFILLER_46_143 VPWR VGND sg13g2_decap_8
X_308_ net29 VGND VPWR _068_ data\[61\] clknet_4_2_0_clk_regs sg13g2_dfrbpq_1
X_239_ _103_ net2 u_shift_reg.locked _086_ VPWR VGND sg13g2_a21o_1
XFILLER_26_828 VPWR VGND sg13g2_decap_8
XFILLER_0_404 VPWR VGND sg13g2_fill_1
XFILLER_29_34 VPWR VGND sg13g2_fill_2
XFILLER_29_45 VPWR VGND sg13g2_decap_8
XFILLER_44_658 VPWR VGND sg13g2_decap_8
XFILLER_45_77 VPWR VGND sg13g2_decap_8
XFILLER_43_168 VPWR VGND sg13g2_fill_1
XFILLER_25_894 VPWR VGND sg13g2_decap_8
XFILLER_43_179 VPWR VGND sg13g2_decap_8
XFILLER_4_765 VPWR VGND sg13g2_decap_8
XFILLER_47_441 VPWR VGND sg13g2_decap_8
Xheichips25_template_47 VPWR VGND uio_oe[5] sg13g2_tielo
XFILLER_22_842 VPWR VGND sg13g2_decap_4
Xoutput13 net13 uio_out[7] VPWR VGND sg13g2_buf_1
XFILLER_1_702 VPWR VGND sg13g2_decap_8
XFILLER_49_739 VPWR VGND sg13g2_decap_8
XFILLER_0_256 VPWR VGND sg13g2_decap_8
XFILLER_48_238 VPWR VGND sg13g2_decap_8
XFILLER_13_842 VPWR VGND sg13g2_decap_4
XFILLER_44_422 VPWR VGND sg13g2_decap_8
XFILLER_44_477 VPWR VGND sg13g2_decap_8
XFILLER_9_846 VPWR VGND sg13g2_fill_2
XFILLER_9_835 VPWR VGND sg13g2_decap_8
XFILLER_0_790 VPWR VGND sg13g2_decap_8
XFILLER_27_912 VPWR VGND sg13g2_decap_8
XFILLER_39_772 VPWR VGND sg13g2_decap_8
XFILLER_27_989 VPWR VGND sg13g2_decap_8
XFILLER_6_838 VPWR VGND sg13g2_decap_8
XFILLER_27_1010 VPWR VGND sg13g2_decap_8
XFILLER_3_39 VPWR VGND sg13g2_decap_8
XFILLER_1_576 VPWR VGND sg13g2_decap_8
XFILLER_45_764 VPWR VGND sg13g2_decap_8
XFILLER_49_536 VPWR VGND sg13g2_decap_8
XFILLER_44_285 VPWR VGND sg13g2_decap_8
XFILLER_36_786 VPWR VGND sg13g2_decap_8
XFILLER_46_528 VPWR VGND sg13g2_decap_8
XFILLER_42_789 VPWR VGND sg13g2_decap_8
XFILLER_27_786 VPWR VGND sg13g2_decap_8
X_272_ net35 VGND VPWR _032_ data\[25\] clknet_4_8_0_clk_regs sg13g2_dfrbpq_1
XFILLER_49_333 VPWR VGND sg13g2_decap_8
XFILLER_45_561 VPWR VGND sg13g2_decap_8
XFILLER_18_786 VPWR VGND sg13g2_decap_8
XFILLER_3_627 VPWR VGND sg13g2_decap_8
XFILLER_2_137 VPWR VGND sg13g2_decap_8
XFILLER_47_826 VPWR VGND sg13g2_decap_8
XFILLER_48_77 VPWR VGND sg13g2_decap_8
XFILLER_46_325 VPWR VGND sg13g2_decap_8
X_324_ net41 VGND VPWR _084_ data\[77\] clknet_4_15_0_clk_regs sg13g2_dfrbpq_1
XFILLER_42_575 VPWR VGND sg13g2_decap_8
X_255_ net39 VGND VPWR _015_ data\[8\] clknet_4_11_0_clk_regs sg13g2_dfrbpq_1
X_186_ data\[25\] data\[26\] net20 _033_ VPWR VGND sg13g2_mux2_1
XFILLER_2_660 VPWR VGND sg13g2_decap_8
XFILLER_43_7 VPWR VGND sg13g2_decap_8
XFILLER_49_130 VPWR VGND sg13g2_decap_8
XFILLER_0_608 VPWR VGND sg13g2_decap_8
XFILLER_34_13 VPWR VGND sg13g2_decap_4
Xclkload1 VPWR clkload1/Y clknet_4_3_0_clk_regs VGND sg13g2_inv_1
XFILLER_47_623 VPWR VGND sg13g2_decap_8
XFILLER_35_807 VPWR VGND sg13g2_decap_8
XFILLER_46_199 VPWR VGND sg13g2_decap_8
X_238_ data\[77\] data\[78\] net27 _085_ VPWR VGND sg13g2_mux2_1
X_307_ net30 VGND VPWR _067_ data\[60\] clknet_4_2_0_clk_regs sg13g2_dfrbpq_1
X_169_ data\[8\] data\[9\] net25 _016_ VPWR VGND sg13g2_mux2_1
XFILLER_26_807 VPWR VGND sg13g2_decap_8
XFILLER_34_851 VPWR VGND sg13g2_decap_8
XFILLER_0_449 VPWR VGND sg13g2_decap_4
XFILLER_40_821 VPWR VGND sg13g2_decap_8
XFILLER_44_637 VPWR VGND sg13g2_decap_8
XFILLER_25_873 VPWR VGND sg13g2_decap_8
XFILLER_45_56 VPWR VGND sg13g2_decap_8
Xclkbuf_4_8_0_clk_regs clknet_0_clk_regs clknet_4_8_0_clk_regs VPWR VGND sg13g2_buf_8
XFILLER_3_298 VPWR VGND sg13g2_decap_8
XFILLER_47_497 VPWR VGND sg13g2_decap_8
XFILLER_47_420 VPWR VGND sg13g2_decap_8
XFILLER_31_821 VPWR VGND sg13g2_fill_2
XFILLER_43_692 VPWR VGND sg13g2_decap_8
Xheichips25_template_48 VPWR VGND uio_oe[6] sg13g2_tielo
XFILLER_22_821 VPWR VGND sg13g2_decap_8
XFILLER_31_25 VPWR VGND sg13g2_fill_1
XFILLER_1_769 VPWR VGND sg13g2_decap_8
XFILLER_49_718 VPWR VGND sg13g2_decap_8
XFILLER_48_217 VPWR VGND sg13g2_decap_8
XFILLER_44_401 VPWR VGND sg13g2_decap_8
XFILLER_9_814 VPWR VGND sg13g2_decap_8
XFILLER_13_821 VPWR VGND sg13g2_decap_4
XFILLER_48_784 VPWR VGND sg13g2_decap_8
XFILLER_47_294 VPWR VGND sg13g2_decap_8
XFILLER_27_968 VPWR VGND sg13g2_decap_8
XFILLER_42_35 VPWR VGND sg13g2_decap_8
XFILLER_10_846 VPWR VGND sg13g2_fill_2
XFILLER_10_835 VPWR VGND sg13g2_decap_8
XFILLER_49_515 VPWR VGND sg13g2_decap_8
XFILLER_3_18 VPWR VGND sg13g2_decap_8
XFILLER_45_743 VPWR VGND sg13g2_decap_8
XFILLER_44_264 VPWR VGND sg13g2_decap_8
XFILLER_48_581 VPWR VGND sg13g2_decap_8
XFILLER_36_765 VPWR VGND sg13g2_decap_8
XFILLER_3_809 VPWR VGND sg13g2_decap_8
XFILLER_27_765 VPWR VGND sg13g2_decap_8
XFILLER_46_507 VPWR VGND sg13g2_decap_8
XFILLER_42_768 VPWR VGND sg13g2_decap_8
X_271_ net35 VGND VPWR _031_ data\[24\] clknet_4_10_0_clk_regs sg13g2_dfrbpq_1
XFILLER_49_389 VPWR VGND sg13g2_decap_8
XFILLER_1_385 VPWR VGND sg13g2_fill_1
XFILLER_49_312 VPWR VGND sg13g2_decap_8
XFILLER_33_779 VPWR VGND sg13g2_decap_8
XFILLER_45_540 VPWR VGND sg13g2_decap_8
XFILLER_18_765 VPWR VGND sg13g2_decap_8
Xclkbuf_4_10_0_clk_regs clknet_0_clk_regs clknet_4_10_0_clk_regs VPWR VGND sg13g2_buf_8
XFILLER_24_779 VPWR VGND sg13g2_decap_8
XFILLER_2_116 VPWR VGND sg13g2_decap_8
XFILLER_3_606 VPWR VGND sg13g2_decap_8
XFILLER_47_805 VPWR VGND sg13g2_decap_8
XFILLER_48_56 VPWR VGND sg13g2_decap_8
XFILLER_46_304 VPWR VGND sg13g2_decap_8
XFILLER_15_779 VPWR VGND sg13g2_decap_8
X_323_ net41 VGND VPWR _083_ data\[76\] clknet_4_15_0_clk_regs sg13g2_dfrbpq_1
X_254_ net39 VGND VPWR _014_ data\[7\] clknet_4_11_0_clk_regs sg13g2_dfrbpq_1
X_185_ data\[24\] data\[25\] net20 _032_ VPWR VGND sg13g2_mux2_1
XFILLER_38_849 VPWR VGND sg13g2_decap_8
XFILLER_1_182 VPWR VGND sg13g2_decap_4
XFILLER_49_186 VPWR VGND sg13g2_decap_8
XFILLER_44_819 VPWR VGND sg13g2_decap_8
XFILLER_37_860 VPWR VGND sg13g2_fill_2
XFILLER_29_849 VPWR VGND sg13g2_decap_8
XFILLER_20_793 VPWR VGND sg13g2_decap_8
Xclkload2 VPWR clkload2/Y clknet_4_5_0_clk_regs VGND sg13g2_inv_1
XFILLER_28_860 VPWR VGND sg13g2_fill_2
XFILLER_47_679 VPWR VGND sg13g2_decap_8
XFILLER_47_602 VPWR VGND sg13g2_decap_8
XFILLER_46_112 VPWR VGND sg13g2_decap_8
X_306_ net30 VGND VPWR _066_ data\[59\] clknet_4_2_0_clk_regs sg13g2_dfrbpq_1
XFILLER_46_178 VPWR VGND sg13g2_decap_8
X_237_ data\[76\] data\[77\] net27 _084_ VPWR VGND sg13g2_mux2_1
XFILLER_7_786 VPWR VGND sg13g2_decap_8
XFILLER_11_793 VPWR VGND sg13g2_decap_8
X_168_ data\[7\] data\[8\] net25 _015_ VPWR VGND sg13g2_mux2_1
XFILLER_1_84 VPWR VGND sg13g2_decap_8
XFILLER_17_819 VPWR VGND sg13g2_decap_8
XFILLER_29_36 VPWR VGND sg13g2_fill_1
XFILLER_40_800 VPWR VGND sg13g2_decap_8
XFILLER_44_616 VPWR VGND sg13g2_decap_8
XFILLER_45_35 VPWR VGND sg13g2_decap_8
XFILLER_43_126 VPWR VGND sg13g2_decap_8
XFILLER_43_137 VPWR VGND sg13g2_fill_2
XFILLER_3_200 VPWR VGND sg13g2_fill_2
XFILLER_6_18 VPWR VGND sg13g2_decap_8
XFILLER_3_277 VPWR VGND sg13g2_decap_8
XFILLER_47_476 VPWR VGND sg13g2_decap_8
XFILLER_31_855 VPWR VGND sg13g2_decap_8
XFILLER_31_800 VPWR VGND sg13g2_decap_8
XFILLER_43_671 VPWR VGND sg13g2_decap_8
XFILLER_42_170 VPWR VGND sg13g2_fill_2
Xheichips25_template_49 VPWR VGND uio_oe[7] sg13g2_tielo
XFILLER_22_800 VPWR VGND sg13g2_decap_8
XFILLER_31_48 VPWR VGND sg13g2_decap_8
XFILLER_0_214 VPWR VGND sg13g2_decap_8
XFILLER_1_737 VPWR VGND sg13g2_decap_8
XFILLER_44_457 VPWR VGND sg13g2_decap_8
XFILLER_13_800 VPWR VGND sg13g2_decap_8
XFILLER_48_763 VPWR VGND sg13g2_decap_8
XFILLER_47_273 VPWR VGND sg13g2_decap_8
XFILLER_27_947 VPWR VGND sg13g2_decap_8
XFILLER_10_814 VPWR VGND sg13g2_decap_8
XFILLER_42_14 VPWR VGND sg13g2_decap_8
XFILLER_6_807 VPWR VGND sg13g2_decap_8
XFILLER_45_799 VPWR VGND sg13g2_decap_8
XFILLER_45_722 VPWR VGND sg13g2_decap_8
XFILLER_44_243 VPWR VGND sg13g2_decap_8
XFILLER_48_560 VPWR VGND sg13g2_decap_8
XFILLER_42_747 VPWR VGND sg13g2_decap_8
X_270_ net35 VGND VPWR _030_ data\[23\] clknet_4_10_0_clk_regs sg13g2_dfrbpq_1
XFILLER_49_368 VPWR VGND sg13g2_decap_8
XFILLER_45_596 VPWR VGND sg13g2_decap_8
XFILLER_48_35 VPWR VGND sg13g2_decap_8
XFILLER_9_18 VPWR VGND sg13g2_decap_8
X_322_ net41 VGND VPWR _082_ data\[75\] clknet_4_15_0_clk_regs sg13g2_dfrbpq_1
X_253_ net39 VGND VPWR _013_ data\[6\] clknet_4_11_0_clk_regs sg13g2_dfrbpq_1
X_184_ data\[23\] data\[24\] net20 _031_ VPWR VGND sg13g2_mux2_1
XFILLER_1_161 VPWR VGND sg13g2_decap_8
XFILLER_2_695 VPWR VGND sg13g2_decap_8
XFILLER_46_861 VPWR VGND sg13g2_fill_1
XFILLER_46_850 VPWR VGND sg13g2_decap_8
XFILLER_38_828 VPWR VGND sg13g2_decap_8
XFILLER_49_165 VPWR VGND sg13g2_decap_8
XFILLER_45_382 VPWR VGND sg13g2_decap_8
XFILLER_29_828 VPWR VGND sg13g2_decap_8
XFILLER_20_772 VPWR VGND sg13g2_decap_8
Xclkload3 VPWR clkload3/Y clknet_4_7_0_clk_regs VGND sg13g2_inv_1
XFILLER_47_658 VPWR VGND sg13g2_decap_8
XFILLER_46_157 VPWR VGND sg13g2_decap_8
XFILLER_43_853 VPWR VGND sg13g2_decap_8
X_305_ net36 VGND VPWR _065_ data\[58\] clknet_4_6_0_clk_regs sg13g2_dfrbpq_1
X_236_ data\[75\] data\[76\] net27 _083_ VPWR VGND sg13g2_mux2_1
X_167_ data\[6\] data\[7\] net25 _014_ VPWR VGND sg13g2_mux2_1
XFILLER_7_765 VPWR VGND sg13g2_decap_8
XFILLER_11_772 VPWR VGND sg13g2_decap_8
XFILLER_1_63 VPWR VGND sg13g2_decap_8
XFILLER_20_28 VPWR VGND sg13g2_fill_1
XFILLER_43_105 VPWR VGND sg13g2_decap_8
XFILLER_45_14 VPWR VGND sg13g2_decap_8
XFILLER_3_212 VPWR VGND sg13g2_fill_2
XFILLER_3_256 VPWR VGND sg13g2_decap_8
XFILLER_10_50 VPWR VGND sg13g2_decap_4
XFILLER_4_779 VPWR VGND sg13g2_decap_8
XFILLER_43_650 VPWR VGND sg13g2_decap_8
XFILLER_16_820 VPWR VGND sg13g2_fill_1
XFILLER_47_455 VPWR VGND sg13g2_decap_8
X_219_ data\[58\] data\[59\] net16 _066_ VPWR VGND sg13g2_mux2_1
XFILLER_18_0 VPWR VGND sg13g2_fill_2
XFILLER_1_716 VPWR VGND sg13g2_decap_8
XFILLER_44_436 VPWR VGND sg13g2_decap_8
XFILLER_48_742 VPWR VGND sg13g2_decap_8
XFILLER_47_252 VPWR VGND sg13g2_decap_8
Xclkbuf_0_clk clknet_0_clk delaynet_0_clk VPWR VGND sg13g2_buf_16
XFILLER_27_926 VPWR VGND sg13g2_decap_8
XFILLER_39_786 VPWR VGND sg13g2_decap_8
XFILLER_26_49 VPWR VGND sg13g2_decap_8
XFILLER_27_1024 VPWR VGND sg13g2_decap_4
XFILLER_45_701 VPWR VGND sg13g2_decap_8
XFILLER_45_778 VPWR VGND sg13g2_decap_8
XFILLER_42_726 VPWR VGND sg13g2_decap_8
XFILLER_2_800 VPWR VGND sg13g2_decap_8
XFILLER_49_347 VPWR VGND sg13g2_decap_8
XFILLER_45_575 VPWR VGND sg13g2_decap_8
XFILLER_43_91 VPWR VGND sg13g2_decap_8
XFILLER_48_14 VPWR VGND sg13g2_decap_8
XFILLER_46_339 VPWR VGND sg13g2_decap_8
XFILLER_42_589 VPWR VGND sg13g2_decap_8
Xfanout40 net41 net40 VPWR VGND sg13g2_buf_1
X_321_ net41 VGND VPWR _081_ data\[74\] clknet_4_15_0_clk_regs sg13g2_dfrbpq_1
X_252_ net39 VGND VPWR _012_ data\[5\] clknet_4_11_0_clk_regs sg13g2_dfrbpq_1
X_183_ data\[22\] data\[23\] net20 _030_ VPWR VGND sg13g2_mux2_1
XFILLER_38_807 VPWR VGND sg13g2_decap_8
XFILLER_1_140 VPWR VGND sg13g2_decap_8
XFILLER_2_674 VPWR VGND sg13g2_decap_8
XFILLER_49_144 VPWR VGND sg13g2_decap_8
XFILLER_45_361 VPWR VGND sg13g2_decap_8
XFILLER_48_0 VPWR VGND sg13g2_decap_8
XFILLER_29_807 VPWR VGND sg13g2_decap_8
Xclkload4 VPWR clkload4/Y clknet_4_9_0_clk_regs VGND sg13g2_inv_1
XFILLER_3_416 VPWR VGND sg13g2_decap_8
XFILLER_43_832 VPWR VGND sg13g2_decap_8
XFILLER_47_637 VPWR VGND sg13g2_decap_8
XFILLER_46_136 VPWR VGND sg13g2_decap_8
X_235_ data\[74\] data\[75\] net27 _082_ VPWR VGND sg13g2_mux2_1
X_304_ net36 VGND VPWR _064_ data\[57\] clknet_4_6_0_clk_regs sg13g2_dfrbpq_1
X_166_ data\[5\] data\[6\] net25 _013_ VPWR VGND sg13g2_mux2_1
XFILLER_41_7 VPWR VGND sg13g2_decap_4
XFILLER_1_42 VPWR VGND sg13g2_decap_8
XFILLER_2_471 VPWR VGND sg13g2_decap_8
XFILLER_34_821 VPWR VGND sg13g2_decap_8
XFILLER_29_27 VPWR VGND sg13g2_decap_8
XFILLER_25_821 VPWR VGND sg13g2_decap_8
XFILLER_40_835 VPWR VGND sg13g2_decap_4
XFILLER_25_887 VPWR VGND sg13g2_decap_8
Xclkbuf_regs_0_clk clk_regs clk VPWR VGND sg13g2_buf_16
XFILLER_47_434 VPWR VGND sg13g2_decap_8
X_149_ VPWR _002_ _109_ VGND sg13g2_inv_1
X_218_ data\[57\] data\[58\] net21 _065_ VPWR VGND sg13g2_mux2_1
XFILLER_22_846 VPWR VGND sg13g2_fill_2
XFILLER_22_835 VPWR VGND sg13g2_decap_8
XFILLER_13_835 VPWR VGND sg13g2_decap_8
XFILLER_44_415 VPWR VGND sg13g2_decap_8
XFILLER_9_828 VPWR VGND sg13g2_decap_8
XFILLER_13_846 VPWR VGND sg13g2_fill_2
XFILLER_48_798 VPWR VGND sg13g2_decap_8