* NGSPICE file created from heichips25_template.ext - technology: ihp-sg13g2

* Black-box entry subcircuit for sg13g2_decap_8 abstract view
.subckt sg13g2_decap_8 VDD VSS
.ends

* Black-box entry subcircuit for sg13g2_buf_1 abstract view
.subckt sg13g2_buf_1 A X VDD VSS
.ends

* Black-box entry subcircuit for sg13g2_fill_2 abstract view
.subckt sg13g2_fill_2 VDD VSS
.ends

* Black-box entry subcircuit for sg13g2_a21oi_1 abstract view
.subckt sg13g2_a21oi_1 VSS VDD A1 A2 Y B1
.ends

* Black-box entry subcircuit for sg13g2_dlygate4sd3_1 abstract view
.subckt sg13g2_dlygate4sd3_1 A VDD VSS X
.ends

* Black-box entry subcircuit for sg13g2_tiehi abstract view
.subckt sg13g2_tiehi VDD VSS L_HI
.ends

* Black-box entry subcircuit for sg13g2_fill_1 abstract view
.subckt sg13g2_fill_1 VDD VSS
.ends

* Black-box entry subcircuit for sg13g2_decap_4 abstract view
.subckt sg13g2_decap_4 VDD VSS
.ends

* Black-box entry subcircuit for sg13g2_o21ai_1 abstract view
.subckt sg13g2_o21ai_1 B1 VDD Y VSS A1 A2
.ends

* Black-box entry subcircuit for sg13g2_nor3_1 abstract view
.subckt sg13g2_nor3_1 A B C Y VDD VSS
.ends

* Black-box entry subcircuit for sg13g2_dfrbpq_1 abstract view
.subckt sg13g2_dfrbpq_1 RESET_B VSS VDD D Q CLK
.ends

* Black-box entry subcircuit for sg13g2_buf_16 abstract view
.subckt sg13g2_buf_16 X A VDD VSS
.ends

* Black-box entry subcircuit for sg13g2_and4_1 abstract view
.subckt sg13g2_and4_1 A B C D X VDD VSS
.ends

* Black-box entry subcircuit for sg13g2_a221oi_1 abstract view
.subckt sg13g2_a221oi_1 VDD VSS B2 C1 B1 A1 Y A2
.ends

* Black-box entry subcircuit for sg13g2_nor2_1 abstract view
.subckt sg13g2_nor2_1 A B Y VDD VSS
.ends

* Black-box entry subcircuit for sg13g2_and2_1 abstract view
.subckt sg13g2_and2_1 A B X VDD VSS
.ends

* Black-box entry subcircuit for sg13g2_nand2_1 abstract view
.subckt sg13g2_nand2_1 Y A B VDD VSS
.ends

* Black-box entry subcircuit for sg13g2_and3_1 abstract view
.subckt sg13g2_and3_1 X A B C VDD VSS
.ends

* Black-box entry subcircuit for sg13g2_nand3_1 abstract view
.subckt sg13g2_nand3_1 B C A Y VDD VSS
.ends

* Black-box entry subcircuit for sg13g2_inv_1 abstract view
.subckt sg13g2_inv_1 VDD Y A VSS
.ends

.subckt heichips25_template VGND VPWR clk ena rst_n ui_in[0] ui_in[1] ui_in[2] ui_in[3]
+ ui_in[4] ui_in[5] ui_in[6] ui_in[7] uio_in[0] uio_in[1] uio_in[2] uio_in[3] uio_in[4]
+ uio_in[5] uio_in[6] uio_in[7] uio_oe[0] uio_oe[1] uio_oe[2] uio_oe[3] uio_oe[4]
+ uio_oe[5] uio_oe[6] uio_oe[7] uio_out[0] uio_out[1] uio_out[2] uio_out[3] uio_out[4]
+ uio_out[5] uio_out[6] uio_out[7] uo_out[0] uo_out[1] uo_out[2] uo_out[3] uo_out[4]
+ uo_out[5] uo_out[6] uo_out[7]
XFILLER_28_907 VPWR VGND sg13g2_decap_8
XFILLER_39_266 VPWR VGND sg13g2_decap_8
XFILLER_36_973 VPWR VGND sg13g2_decap_8
XFILLER_22_100 VPWR VGND sg13g2_decap_8
XFILLER_35_483 VPWR VGND sg13g2_decap_8
XFILLER_23_634 VPWR VGND sg13g2_decap_8
XFILLER_10_317 VPWR VGND sg13g2_decap_8
XFILLER_22_177 VPWR VGND sg13g2_decap_8
XFILLER_7_7 VPWR VGND sg13g2_decap_8
XFILLER_45_203 VPWR VGND sg13g2_decap_8
XFILLER_27_940 VPWR VGND sg13g2_decap_8
XFILLER_42_910 VPWR VGND sg13g2_decap_8
XFILLER_26_74 VPWR VGND sg13g2_decap_8
XFILLER_41_420 VPWR VGND sg13g2_decap_8
XFILLER_26_494 VPWR VGND sg13g2_decap_8
XFILLER_42_987 VPWR VGND sg13g2_decap_8
XFILLER_14_667 VPWR VGND sg13g2_decap_8
XFILLER_41_497 VPWR VGND sg13g2_decap_8
XFILLER_13_188 VPWR VGND sg13g2_decap_8
XFILLER_42_84 VPWR VGND sg13g2_decap_8
XFILLER_10_884 VPWR VGND sg13g2_decap_8
XFILLER_6_866 VPWR VGND sg13g2_decap_8
XFILLER_5_332 VPWR VGND sg13g2_decap_8
XFILLER_1_560 VPWR VGND sg13g2_decap_8
XFILLER_49_564 VPWR VGND sg13g2_decap_8
X_83_ net8 net16 VPWR VGND sg13g2_buf_1
XFILLER_36_203 VPWR VGND sg13g2_decap_8
XFILLER_18_962 VPWR VGND sg13g2_decap_8
XFILLER_45_770 VPWR VGND sg13g2_decap_8
XFILLER_17_472 VPWR VGND sg13g2_decap_8
XFILLER_33_910 VPWR VGND sg13g2_decap_8
XFILLER_44_280 VPWR VGND sg13g2_decap_8
XFILLER_32_420 VPWR VGND sg13g2_decap_8
XFILLER_33_987 VPWR VGND sg13g2_decap_8
XFILLER_20_637 VPWR VGND sg13g2_decap_8
XFILLER_32_497 VPWR VGND sg13g2_decap_8
XFILLER_9_671 VPWR VGND sg13g2_decap_8
XFILLER_8_170 VPWR VGND sg13g2_decap_8
XFILLER_28_704 VPWR VGND sg13g2_decap_8
XFILLER_43_707 VPWR VGND sg13g2_decap_8
XFILLER_27_247 VPWR VGND sg13g2_decap_8
XFILLER_42_217 VPWR VGND sg13g2_decap_8
XFILLER_24_921 VPWR VGND sg13g2_decap_8
XFILLER_36_770 VPWR VGND sg13g2_decap_8
XFILLER_23_431 VPWR VGND sg13g2_decap_8
XFILLER_35_280 VPWR VGND sg13g2_decap_8
XFILLER_24_998 VPWR VGND sg13g2_decap_8
XFILLER_10_114 VPWR VGND sg13g2_decap_8
XFILLER_11_637 VPWR VGND sg13g2_decap_8
XFILLER_12_32 VPWR VGND sg13g2_decap_8
XFILLER_5_4 VPWR VGND sg13g2_decap_8
XFILLER_3_858 VPWR VGND sg13g2_decap_8
XFILLER_2_357 VPWR VGND sg13g2_decap_8
XFILLER_19_748 VPWR VGND sg13g2_decap_8
XFILLER_46_567 VPWR VGND sg13g2_decap_8
XFILLER_34_707 VPWR VGND sg13g2_decap_8
XFILLER_37_84 VPWR VGND sg13g2_decap_8
XFILLER_18_269 VPWR VGND sg13g2_decap_8
XFILLER_33_217 VPWR VGND sg13g2_decap_8
XFILLER_15_932 VPWR VGND sg13g2_decap_8
XFILLER_18_1004 VPWR VGND sg13g2_decap_8
XFILLER_26_291 VPWR VGND sg13g2_decap_8
XFILLER_14_464 VPWR VGND sg13g2_decap_8
XFILLER_30_924 VPWR VGND sg13g2_decap_8
XFILLER_42_784 VPWR VGND sg13g2_decap_8
XFILLER_41_294 VPWR VGND sg13g2_decap_8
XFILLER_10_681 VPWR VGND sg13g2_decap_8
XFILLER_6_663 VPWR VGND sg13g2_decap_8
XFILLER_25_1019 VPWR VGND sg13g2_decap_8
XFILLER_49_361 VPWR VGND sg13g2_decap_8
XFILLER_37_567 VPWR VGND sg13g2_decap_8
XFILLER_25_718 VPWR VGND sg13g2_decap_8
XFILLER_24_228 VPWR VGND sg13g2_decap_8
XFILLER_21_913 VPWR VGND sg13g2_decap_8
XFILLER_33_784 VPWR VGND sg13g2_decap_8
XFILLER_20_434 VPWR VGND sg13g2_decap_8
XFILLER_32_294 VPWR VGND sg13g2_decap_8
XFILLER_28_501 VPWR VGND sg13g2_decap_8
XFILLER_43_504 VPWR VGND sg13g2_decap_8
XFILLER_28_578 VPWR VGND sg13g2_decap_8
XFILLER_15_239 VPWR VGND sg13g2_decap_8
XFILLER_24_795 VPWR VGND sg13g2_decap_8
XFILLER_11_434 VPWR VGND sg13g2_decap_8
XFILLER_12_968 VPWR VGND sg13g2_decap_8
XFILLER_23_53 VPWR VGND sg13g2_decap_8
XFILLER_48_1008 VPWR VGND sg13g2_decap_8
XFILLER_3_655 VPWR VGND sg13g2_decap_8
XFILLER_2_154 VPWR VGND sg13g2_decap_8
XFILLER_47_854 VPWR VGND sg13g2_decap_8
XFILLER_0_35 VPWR VGND sg13g2_decap_8
XFILLER_19_545 VPWR VGND sg13g2_decap_8
XFILLER_46_364 VPWR VGND sg13g2_decap_8
XFILLER_34_504 VPWR VGND sg13g2_decap_8
XFILLER_9_11 VPWR VGND sg13g2_decap_8
XFILLER_42_581 VPWR VGND sg13g2_decap_8
XFILLER_14_261 VPWR VGND sg13g2_decap_8
XFILLER_30_721 VPWR VGND sg13g2_decap_8
XFILLER_9_99 VPWR VGND sg13g2_fill_2
XFILLER_30_798 VPWR VGND sg13g2_decap_8
XFILLER_31_1001 VPWR VGND sg13g2_decap_8
XFILLER_7_950 VPWR VGND sg13g2_decap_8
XFILLER_6_460 VPWR VGND sg13g2_decap_8
XFILLER_38_854 VPWR VGND sg13g2_decap_8
X_49_ VGND VPWR net5 _10_ _20_ net41 sg13g2_a21oi_1
XFILLER_25_515 VPWR VGND sg13g2_decap_8
XFILLER_37_364 VPWR VGND sg13g2_decap_8
XFILLER_40_518 VPWR VGND sg13g2_decap_8
XFILLER_21_710 VPWR VGND sg13g2_decap_8
XFILLER_33_581 VPWR VGND sg13g2_decap_8
XFILLER_20_231 VPWR VGND sg13g2_decap_8
XFILLER_21_787 VPWR VGND sg13g2_decap_8
XFILLER_0_658 VPWR VGND sg13g2_decap_8
XFILLER_18_53 VPWR VGND sg13g2_decap_8
XFILLER_29_865 VPWR VGND sg13g2_decap_8
XFILLER_43_301 VPWR VGND sg13g2_decap_8
XFILLER_28_375 VPWR VGND sg13g2_decap_8
XFILLER_44_868 VPWR VGND sg13g2_decap_8
XFILLER_16_559 VPWR VGND sg13g2_decap_8
XFILLER_31_518 VPWR VGND sg13g2_decap_8
XFILLER_43_378 VPWR VGND sg13g2_decap_8
XFILLER_34_63 VPWR VGND sg13g2_decap_8
XFILLER_11_231 VPWR VGND sg13g2_decap_8
XFILLER_12_765 VPWR VGND sg13g2_decap_8
XFILLER_24_592 VPWR VGND sg13g2_decap_8
XFILLER_8_758 VPWR VGND sg13g2_decap_8
XFILLER_7_257 VPWR VGND sg13g2_decap_8
XFILLER_4_953 VPWR VGND sg13g2_decap_8
XFILLER_3_452 VPWR VGND sg13g2_decap_8
XFILLER_47_651 VPWR VGND sg13g2_decap_8
XFILLER_19_342 VPWR VGND sg13g2_decap_8
XFILLER_46_161 VPWR VGND sg13g2_decap_8
XFILLER_34_301 VPWR VGND sg13g2_decap_8
XFILLER_35_868 VPWR VGND sg13g2_decap_8
XFILLER_34_378 VPWR VGND sg13g2_decap_8
XFILLER_30_595 VPWR VGND sg13g2_decap_8
XFILLER_26_802 VPWR VGND sg13g2_decap_8
XFILLER_38_651 VPWR VGND sg13g2_decap_8
XFILLER_25_312 VPWR VGND sg13g2_decap_8
XFILLER_37_161 VPWR VGND sg13g2_decap_8
XFILLER_41_805 VPWR VGND sg13g2_decap_8
XFILLER_26_879 VPWR VGND sg13g2_decap_8
XFILLER_25_389 VPWR VGND sg13g2_decap_8
XFILLER_40_315 VPWR VGND sg13g2_decap_8
XFILLER_21_584 VPWR VGND sg13g2_decap_8
XFILLER_5_717 VPWR VGND sg13g2_decap_8
XFILLER_20_32 VPWR VGND sg13g2_decap_8
XFILLER_1_945 VPWR VGND sg13g2_decap_8
XFILLER_20_98 VPWR VGND sg13g2_decap_8
XFILLER_0_455 VPWR VGND sg13g2_decap_8
XFILLER_49_949 VPWR VGND sg13g2_decap_8
Xhold41 net6 VPWR VGND net41 sg13g2_dlygate4sd3_1
XFILLER_48_448 VPWR VGND sg13g2_decap_8
XFILLER_21_1011 VPWR VGND sg13g2_decap_8
XFILLER_29_74 VPWR VGND sg13g2_decap_8
XFILLER_29_662 VPWR VGND sg13g2_decap_8
XFILLER_17_857 VPWR VGND sg13g2_decap_8
XFILLER_28_172 VPWR VGND sg13g2_decap_8
XFILLER_44_665 VPWR VGND sg13g2_decap_8
XFILLER_16_356 VPWR VGND sg13g2_decap_8
XFILLER_32_805 VPWR VGND sg13g2_decap_8
XFILLER_45_84 VPWR VGND sg13g2_decap_8
XFILLER_43_175 VPWR VGND sg13g2_decap_8
XFILLER_31_315 VPWR VGND sg13g2_decap_8
XFILLER_12_562 VPWR VGND sg13g2_decap_8
XFILLER_40_882 VPWR VGND sg13g2_decap_8
XFILLER_8_555 VPWR VGND sg13g2_decap_8
XFILLER_6_89 VPWR VGND sg13g2_decap_8
XFILLER_4_750 VPWR VGND sg13g2_decap_8
XFILLER_6_1027 VPWR VGND sg13g2_fill_2
XFILLER_20_4 VPWR VGND sg13g2_decap_8
XFILLER_39_448 VPWR VGND sg13g2_decap_8
XFILLER_26_109 VPWR VGND sg13g2_decap_8
XFILLER_35_665 VPWR VGND sg13g2_decap_8
XFILLER_23_816 VPWR VGND sg13g2_decap_8
XFILLER_34_175 VPWR VGND sg13g2_decap_8
XFILLER_22_359 VPWR VGND sg13g2_decap_8
XFILLER_31_882 VPWR VGND sg13g2_decap_8
XFILLER_30_392 VPWR VGND sg13g2_decap_8
XFILLER_44_1022 VPWR VGND sg13g2_decap_8
Xheichips25_template_32 VPWR VGND uio_oe[6] sg13g2_tiehi
XFILLER_41_602 VPWR VGND sg13g2_decap_8
XFILLER_14_849 VPWR VGND sg13g2_decap_8
XFILLER_15_32 VPWR VGND sg13g2_decap_8
XFILLER_26_676 VPWR VGND sg13g2_decap_8
XFILLER_25_186 VPWR VGND sg13g2_decap_8
XFILLER_40_112 VPWR VGND sg13g2_decap_8
XFILLER_41_679 VPWR VGND sg13g2_decap_8
XFILLER_21_381 VPWR VGND sg13g2_decap_8
XFILLER_40_189 VPWR VGND sg13g2_decap_8
XFILLER_5_514 VPWR VGND sg13g2_decap_8
XFILLER_31_42 VPWR VGND sg13g2_decap_8
Xoutput7 net7 uio_out[4] VPWR VGND sg13g2_buf_1
XFILLER_1_742 VPWR VGND sg13g2_decap_8
XFILLER_0_252 VPWR VGND sg13g2_decap_8
XFILLER_49_746 VPWR VGND sg13g2_decap_8
XFILLER_48_245 VPWR VGND sg13g2_decap_8
XFILLER_45_952 VPWR VGND sg13g2_decap_8
XFILLER_17_654 VPWR VGND sg13g2_decap_8
XFILLER_44_462 VPWR VGND sg13g2_decap_8
XFILLER_16_153 VPWR VGND sg13g2_decap_8
XFILLER_32_602 VPWR VGND sg13g2_decap_8
XFILLER_31_112 VPWR VGND sg13g2_decap_8
XFILLER_13_860 VPWR VGND sg13g2_decap_8
XFILLER_20_819 VPWR VGND sg13g2_decap_8
XFILLER_32_679 VPWR VGND sg13g2_decap_8
XFILLER_9_853 VPWR VGND sg13g2_decap_8
XFILLER_31_189 VPWR VGND sg13g2_decap_8
XFILLER_8_352 VPWR VGND sg13g2_decap_8
XFILLER_28_1028 VPWR VGND sg13g2_fill_1
XFILLER_39_245 VPWR VGND sg13g2_decap_8
XFILLER_27_429 VPWR VGND sg13g2_decap_8
XFILLER_36_952 VPWR VGND sg13g2_decap_8
XFILLER_23_613 VPWR VGND sg13g2_decap_8
XFILLER_35_462 VPWR VGND sg13g2_decap_8
XFILLER_11_819 VPWR VGND sg13g2_decap_8
XFILLER_22_156 VPWR VGND sg13g2_decap_8
XFILLER_2_539 VPWR VGND sg13g2_decap_8
XFILLER_46_749 VPWR VGND sg13g2_decap_8
XFILLER_45_259 VPWR VGND sg13g2_decap_8
XFILLER_26_473 VPWR VGND sg13g2_decap_8
XFILLER_27_996 VPWR VGND sg13g2_decap_8
XFILLER_42_966 VPWR VGND sg13g2_decap_8
XFILLER_14_646 VPWR VGND sg13g2_decap_8
XFILLER_41_476 VPWR VGND sg13g2_decap_8
XFILLER_13_134 VPWR VGND sg13g2_decap_4
XFILLER_13_167 VPWR VGND sg13g2_decap_8
XFILLER_42_63 VPWR VGND sg13g2_decap_8
XFILLER_10_863 VPWR VGND sg13g2_decap_8
XFILLER_6_845 VPWR VGND sg13g2_decap_8
XFILLER_5_311 VPWR VGND sg13g2_decap_8
XFILLER_5_388 VPWR VGND sg13g2_decap_8
XFILLER_3_68 VPWR VGND sg13g2_decap_8
XFILLER_49_543 VPWR VGND sg13g2_decap_8
X_82_ net7 net15 VPWR VGND sg13g2_buf_1
XFILLER_3_1019 VPWR VGND sg13g2_decap_8
XFILLER_37_749 VPWR VGND sg13g2_decap_8
XFILLER_18_941 VPWR VGND sg13g2_decap_8
XFILLER_36_259 VPWR VGND sg13g2_decap_8
XFILLER_17_451 VPWR VGND sg13g2_decap_8
XFILLER_20_616 VPWR VGND sg13g2_decap_8
XFILLER_33_966 VPWR VGND sg13g2_decap_8
XFILLER_32_476 VPWR VGND sg13g2_decap_8
XFILLER_9_650 VPWR VGND sg13g2_decap_8
XFILLER_27_226 VPWR VGND sg13g2_decap_8
XFILLER_24_900 VPWR VGND sg13g2_decap_8
XFILLER_23_410 VPWR VGND sg13g2_decap_8
XFILLER_24_977 VPWR VGND sg13g2_decap_8
XFILLER_11_616 VPWR VGND sg13g2_decap_8
XFILLER_23_487 VPWR VGND sg13g2_decap_8
XFILLER_12_11 VPWR VGND sg13g2_decap_8
XFILLER_12_88 VPWR VGND sg13g2_decap_8
XFILLER_3_837 VPWR VGND sg13g2_decap_8
XFILLER_2_336 VPWR VGND sg13g2_decap_8
XFILLER_19_727 VPWR VGND sg13g2_decap_8
XFILLER_46_546 VPWR VGND sg13g2_decap_8
XFILLER_18_248 VPWR VGND sg13g2_decap_8
XFILLER_37_63 VPWR VGND sg13g2_decap_8
XFILLER_15_911 VPWR VGND sg13g2_decap_8
XFILLER_26_270 VPWR VGND sg13g2_decap_8
XFILLER_27_793 VPWR VGND sg13g2_decap_8
XFILLER_42_763 VPWR VGND sg13g2_decap_8
XFILLER_14_443 VPWR VGND sg13g2_decap_8
XFILLER_15_988 VPWR VGND sg13g2_decap_8
XFILLER_30_903 VPWR VGND sg13g2_decap_8
XFILLER_41_273 VPWR VGND sg13g2_decap_8
XFILLER_10_660 VPWR VGND sg13g2_decap_8
XFILLER_6_642 VPWR VGND sg13g2_decap_8
XFILLER_5_185 VPWR VGND sg13g2_decap_8
XFILLER_49_340 VPWR VGND sg13g2_decap_8
XFILLER_37_546 VPWR VGND sg13g2_decap_8
XFILLER_24_207 VPWR VGND sg13g2_decap_8
XFILLER_33_763 VPWR VGND sg13g2_decap_8
XFILLER_20_413 VPWR VGND sg13g2_decap_8
XFILLER_32_273 VPWR VGND sg13g2_decap_8
XFILLER_21_969 VPWR VGND sg13g2_decap_8
XFILLER_28_557 VPWR VGND sg13g2_decap_8
XFILLER_15_218 VPWR VGND sg13g2_decap_8
XFILLER_11_413 VPWR VGND sg13g2_decap_8
XFILLER_12_947 VPWR VGND sg13g2_decap_8
XFILLER_24_774 VPWR VGND sg13g2_decap_8
XFILLER_23_32 VPWR VGND sg13g2_decap_8
XFILLER_23_284 VPWR VGND sg13g2_decap_8
XFILLER_7_439 VPWR VGND sg13g2_decap_8
XFILLER_20_980 VPWR VGND sg13g2_decap_8
XFILLER_3_634 VPWR VGND sg13g2_decap_8
XFILLER_2_133 VPWR VGND sg13g2_decap_8
XFILLER_47_833 VPWR VGND sg13g2_decap_8
XFILLER_48_84 VPWR VGND sg13g2_decap_8
XFILLER_19_524 VPWR VGND sg13g2_decap_8
XFILLER_46_343 VPWR VGND sg13g2_decap_8
XFILLER_0_14 VPWR VGND sg13g2_decap_8
XFILLER_27_590 VPWR VGND sg13g2_decap_8
XFILLER_14_240 VPWR VGND sg13g2_decap_8
XFILLER_42_560 VPWR VGND sg13g2_decap_8
XFILLER_15_785 VPWR VGND sg13g2_decap_8
XFILLER_30_700 VPWR VGND sg13g2_decap_8
XFILLER_9_67 VPWR VGND sg13g2_decap_8
XFILLER_30_777 VPWR VGND sg13g2_decap_8
XFILLER_11_980 VPWR VGND sg13g2_decap_8
XFILLER_9_1014 VPWR VGND sg13g2_decap_8
XFILLER_38_833 VPWR VGND sg13g2_decap_8
X_48_ VGND VPWR net48 _10_ _05_ _19_ sg13g2_a21oi_1
XFILLER_37_343 VPWR VGND sg13g2_decap_8
XFILLER_33_560 VPWR VGND sg13g2_decap_8
XFILLER_20_210 VPWR VGND sg13g2_decap_8
XFILLER_21_766 VPWR VGND sg13g2_decap_8
XFILLER_20_287 VPWR VGND sg13g2_decap_8
XFILLER_0_637 VPWR VGND sg13g2_decap_8
XFILLER_18_32 VPWR VGND sg13g2_decap_8
XFILLER_29_844 VPWR VGND sg13g2_decap_8
XFILLER_28_354 VPWR VGND sg13g2_decap_8
XFILLER_44_847 VPWR VGND sg13g2_decap_8
XFILLER_16_538 VPWR VGND sg13g2_decap_8
XFILLER_43_357 VPWR VGND sg13g2_decap_8
XFILLER_24_571 VPWR VGND sg13g2_decap_8
XFILLER_34_42 VPWR VGND sg13g2_decap_8
XFILLER_11_210 VPWR VGND sg13g2_decap_8
XFILLER_12_744 VPWR VGND sg13g2_decap_8
XFILLER_8_737 VPWR VGND sg13g2_decap_8
XFILLER_7_236 VPWR VGND sg13g2_decap_8
XFILLER_11_287 VPWR VGND sg13g2_decap_8
XFILLER_4_932 VPWR VGND sg13g2_decap_8
XFILLER_3_431 VPWR VGND sg13g2_decap_8
XFILLER_47_630 VPWR VGND sg13g2_decap_8
XFILLER_19_321 VPWR VGND sg13g2_decap_8
XFILLER_46_140 VPWR VGND sg13g2_decap_8
XFILLER_19_398 VPWR VGND sg13g2_decap_8
XFILLER_35_847 VPWR VGND sg13g2_decap_8
XFILLER_34_357 VPWR VGND sg13g2_decap_8
XFILLER_15_582 VPWR VGND sg13g2_decap_8
XFILLER_30_574 VPWR VGND sg13g2_decap_8
XFILLER_41_0 VPWR VGND sg13g2_decap_8
XFILLER_38_630 VPWR VGND sg13g2_decap_8
XFILLER_37_140 VPWR VGND sg13g2_decap_8
XFILLER_26_858 VPWR VGND sg13g2_decap_8
XFILLER_38_1008 VPWR VGND sg13g2_decap_8
XFILLER_25_368 VPWR VGND sg13g2_decap_8
XFILLER_21_563 VPWR VGND sg13g2_decap_8
XFILLER_4_239 VPWR VGND sg13g2_decap_8
XFILLER_20_11 VPWR VGND sg13g2_decap_8
XFILLER_1_924 VPWR VGND sg13g2_decap_8
XFILLER_0_434 VPWR VGND sg13g2_decap_8
XFILLER_49_928 VPWR VGND sg13g2_decap_8
XFILLER_48_427 VPWR VGND sg13g2_decap_8
XFILLER_29_53 VPWR VGND sg13g2_decap_8
Xhold42 _20_ VPWR VGND net42 sg13g2_dlygate4sd3_1
XFILLER_29_641 VPWR VGND sg13g2_decap_8
XFILLER_17_836 VPWR VGND sg13g2_decap_8
XFILLER_28_151 VPWR VGND sg13g2_decap_8
XFILLER_45_63 VPWR VGND sg13g2_decap_8
XFILLER_44_644 VPWR VGND sg13g2_decap_8
XFILLER_16_335 VPWR VGND sg13g2_decap_8
XFILLER_43_154 VPWR VGND sg13g2_decap_8
XFILLER_12_541 VPWR VGND sg13g2_decap_8
XFILLER_40_861 VPWR VGND sg13g2_decap_8
XFILLER_8_534 VPWR VGND sg13g2_decap_8
XFILLER_6_68 VPWR VGND sg13g2_decap_8
XFILLER_6_1006 VPWR VGND sg13g2_decap_8
XFILLER_13_4 VPWR VGND sg13g2_decap_8
XFILLER_39_427 VPWR VGND sg13g2_decap_8
XFILLER_48_994 VPWR VGND sg13g2_decap_8
XFILLER_19_195 VPWR VGND sg13g2_decap_8
XFILLER_35_644 VPWR VGND sg13g2_decap_8
XFILLER_34_154 VPWR VGND sg13g2_decap_8
XFILLER_22_338 VPWR VGND sg13g2_decap_8
XFILLER_31_861 VPWR VGND sg13g2_decap_8
XFILLER_30_371 VPWR VGND sg13g2_decap_8
XFILLER_44_1001 VPWR VGND sg13g2_decap_8
Xheichips25_template_33 VPWR VGND uio_oe[7] sg13g2_tiehi
XFILLER_39_994 VPWR VGND sg13g2_decap_8
XFILLER_26_655 VPWR VGND sg13g2_decap_8
XFILLER_14_828 VPWR VGND sg13g2_decap_8
XFILLER_15_11 VPWR VGND sg13g2_decap_8
XFILLER_25_165 VPWR VGND sg13g2_decap_8
XFILLER_41_658 VPWR VGND sg13g2_decap_8
XFILLER_13_349 VPWR VGND sg13g2_decap_8
XFILLER_15_88 VPWR VGND sg13g2_decap_8
XFILLER_40_168 VPWR VGND sg13g2_decap_8
XFILLER_21_360 VPWR VGND sg13g2_decap_8
XFILLER_31_21 VPWR VGND sg13g2_decap_8
XFILLER_31_98 VPWR VGND sg13g2_decap_8
Xoutput8 net8 uio_out[5] VPWR VGND sg13g2_buf_1
Xoutput10 net10 uio_out[7] VPWR VGND sg13g2_buf_1
XFILLER_1_721 VPWR VGND sg13g2_decap_8
XFILLER_49_725 VPWR VGND sg13g2_decap_8
XFILLER_0_231 VPWR VGND sg13g2_decap_8
XFILLER_48_224 VPWR VGND sg13g2_decap_8
XFILLER_1_798 VPWR VGND sg13g2_decap_8
XFILLER_45_931 VPWR VGND sg13g2_decap_8
XFILLER_44_441 VPWR VGND sg13g2_decap_8
XFILLER_16_132 VPWR VGND sg13g2_decap_8
XFILLER_17_633 VPWR VGND sg13g2_decap_8
XFILLER_32_658 VPWR VGND sg13g2_decap_8
XFILLER_31_168 VPWR VGND sg13g2_decap_8
XFILLER_9_832 VPWR VGND sg13g2_decap_8
XFILLER_8_331 VPWR VGND sg13g2_decap_8
XFILLER_39_224 VPWR VGND sg13g2_decap_8
XFILLER_27_408 VPWR VGND sg13g2_decap_8
XFILLER_48_791 VPWR VGND sg13g2_decap_8
XFILLER_36_931 VPWR VGND sg13g2_decap_8
XFILLER_35_441 VPWR VGND sg13g2_decap_8
XFILLER_22_135 VPWR VGND sg13g2_decap_8
XFILLER_23_669 VPWR VGND sg13g2_decap_8
XFILLER_11_1022 VPWR VGND sg13g2_decap_8
XFILLER_2_518 VPWR VGND sg13g2_decap_8
XFILLER_19_909 VPWR VGND sg13g2_decap_8
XFILLER_46_728 VPWR VGND sg13g2_decap_8
XFILLER_45_238 VPWR VGND sg13g2_decap_8
XFILLER_26_32 VPWR VGND sg13g2_decap_8
XFILLER_39_791 VPWR VGND sg13g2_decap_8
XFILLER_26_452 VPWR VGND sg13g2_decap_8
XFILLER_27_975 VPWR VGND sg13g2_decap_8
XFILLER_42_945 VPWR VGND sg13g2_decap_8
XFILLER_13_113 VPWR VGND sg13g2_decap_8
XFILLER_14_625 VPWR VGND sg13g2_decap_8
XFILLER_41_455 VPWR VGND sg13g2_decap_8
XFILLER_42_42 VPWR VGND sg13g2_decap_8
XFILLER_9_139 VPWR VGND sg13g2_decap_8
XFILLER_10_842 VPWR VGND sg13g2_decap_8
XFILLER_6_824 VPWR VGND sg13g2_decap_8
XFILLER_5_367 VPWR VGND sg13g2_decap_8
XFILLER_3_47 VPWR VGND sg13g2_decap_8
XFILLER_3_25 VPWR VGND sg13g2_decap_8
XFILLER_49_522 VPWR VGND sg13g2_decap_8
XFILLER_1_595 VPWR VGND sg13g2_decap_8
X_81_ net6 net14 VPWR VGND sg13g2_buf_1
XFILLER_49_599 VPWR VGND sg13g2_decap_8
XFILLER_18_920 VPWR VGND sg13g2_decap_8
XFILLER_37_728 VPWR VGND sg13g2_decap_8
XFILLER_17_430 VPWR VGND sg13g2_decap_8
XFILLER_36_238 VPWR VGND sg13g2_decap_8
XFILLER_18_997 VPWR VGND sg13g2_decap_8
XFILLER_33_945 VPWR VGND sg13g2_decap_8
XFILLER_32_455 VPWR VGND sg13g2_decap_8
XFILLER_34_1022 VPWR VGND sg13g2_decap_8
XFILLER_41_1015 VPWR VGND sg13g2_decap_8
XFILLER_27_205 VPWR VGND sg13g2_decap_8
XFILLER_28_739 VPWR VGND sg13g2_decap_8
XFILLER_24_956 VPWR VGND sg13g2_decap_8
XFILLER_23_466 VPWR VGND sg13g2_decap_8
XFILLER_10_149 VPWR VGND sg13g2_decap_8
XFILLER_12_67 VPWR VGND sg13g2_decap_8
XFILLER_3_816 VPWR VGND sg13g2_decap_8
XFILLER_2_315 VPWR VGND sg13g2_decap_8
XFILLER_19_706 VPWR VGND sg13g2_decap_8
XFILLER_46_525 VPWR VGND sg13g2_decap_8
XFILLER_37_42 VPWR VGND sg13g2_decap_8
XFILLER_18_227 VPWR VGND sg13g2_decap_8
XFILLER_27_772 VPWR VGND sg13g2_decap_8
XFILLER_14_422 VPWR VGND sg13g2_decap_8
XFILLER_42_742 VPWR VGND sg13g2_decap_8
XFILLER_15_967 VPWR VGND sg13g2_decap_8
XFILLER_14_499 VPWR VGND sg13g2_decap_8
XFILLER_41_252 VPWR VGND sg13g2_decap_8
XFILLER_30_959 VPWR VGND sg13g2_decap_8
XFILLER_6_621 VPWR VGND sg13g2_decap_8
XFILLER_5_164 VPWR VGND sg13g2_decap_8
XFILLER_45_7 VPWR VGND sg13g2_decap_8
XFILLER_6_698 VPWR VGND sg13g2_decap_8
XFILLER_2_882 VPWR VGND sg13g2_decap_8
XFILLER_1_392 VPWR VGND sg13g2_decap_8
XFILLER_37_525 VPWR VGND sg13g2_decap_8
XFILLER_49_396 VPWR VGND sg13g2_decap_8
XFILLER_18_794 VPWR VGND sg13g2_decap_8
XFILLER_33_742 VPWR VGND sg13g2_decap_8
XFILLER_21_948 VPWR VGND sg13g2_decap_8
XFILLER_32_252 VPWR VGND sg13g2_decap_8
XFILLER_20_469 VPWR VGND sg13g2_decap_8
XFILLER_0_819 VPWR VGND sg13g2_decap_8
XFILLER_28_536 VPWR VGND sg13g2_decap_8
XFILLER_43_539 VPWR VGND sg13g2_decap_8
XFILLER_24_753 VPWR VGND sg13g2_decap_8
XFILLER_12_926 VPWR VGND sg13g2_decap_8
XFILLER_23_11 VPWR VGND sg13g2_decap_8
XFILLER_23_263 VPWR VGND sg13g2_decap_8
XFILLER_8_919 VPWR VGND sg13g2_decap_8
XFILLER_7_418 VPWR VGND sg13g2_decap_8
XFILLER_11_469 VPWR VGND sg13g2_decap_8
XFILLER_23_88 VPWR VGND sg13g2_decap_8
XFILLER_3_613 VPWR VGND sg13g2_decap_8
XFILLER_2_112 VPWR VGND sg13g2_decap_8
XFILLER_2_189 VPWR VGND sg13g2_decap_8
XFILLER_47_812 VPWR VGND sg13g2_decap_8
XFILLER_48_63 VPWR VGND sg13g2_decap_8
XFILLER_19_503 VPWR VGND sg13g2_decap_8
XFILLER_46_322 VPWR VGND sg13g2_decap_8
XFILLER_47_889 VPWR VGND sg13g2_decap_8
XFILLER_46_399 VPWR VGND sg13g2_decap_8
XFILLER_34_539 VPWR VGND sg13g2_decap_8
XFILLER_15_764 VPWR VGND sg13g2_decap_8
XFILLER_9_46 VPWR VGND sg13g2_decap_8
XFILLER_14_296 VPWR VGND sg13g2_decap_8
XFILLER_30_756 VPWR VGND sg13g2_decap_8
XFILLER_7_985 VPWR VGND sg13g2_decap_8
XFILLER_6_495 VPWR VGND sg13g2_decap_8
XFILLER_38_812 VPWR VGND sg13g2_decap_8
XFILLER_49_193 VPWR VGND sg13g2_decap_8
XFILLER_37_322 VPWR VGND sg13g2_decap_8
X_47_ net1 VPWR _19_ VGND net48 _10_ sg13g2_o21ai_1
XFILLER_38_889 VPWR VGND sg13g2_decap_8
XFILLER_37_399 VPWR VGND sg13g2_decap_8
XFILLER_18_591 VPWR VGND sg13g2_decap_8
XFILLER_21_745 VPWR VGND sg13g2_decap_8
XFILLER_20_266 VPWR VGND sg13g2_decap_8
XFILLER_0_616 VPWR VGND sg13g2_decap_8
XFILLER_48_609 VPWR VGND sg13g2_decap_8
XFILLER_47_119 VPWR VGND sg13g2_decap_8
XFILLER_29_823 VPWR VGND sg13g2_decap_8
XFILLER_18_11 VPWR VGND sg13g2_decap_8
XFILLER_28_333 VPWR VGND sg13g2_decap_8
XFILLER_44_826 VPWR VGND sg13g2_decap_8
XFILLER_16_517 VPWR VGND sg13g2_decap_8
XFILLER_18_88 VPWR VGND sg13g2_decap_8
XFILLER_43_336 VPWR VGND sg13g2_decap_8
XFILLER_34_21 VPWR VGND sg13g2_decap_8
XFILLER_24_550 VPWR VGND sg13g2_decap_8
XFILLER_12_723 VPWR VGND sg13g2_decap_8
XFILLER_15_1009 VPWR VGND sg13g2_decap_8
XFILLER_34_98 VPWR VGND sg13g2_decap_8
XFILLER_8_716 VPWR VGND sg13g2_decap_8
XFILLER_11_266 VPWR VGND sg13g2_decap_8
XFILLER_7_215 VPWR VGND sg13g2_decap_8
XFILLER_4_911 VPWR VGND sg13g2_decap_8
XFILLER_3_410 VPWR VGND sg13g2_decap_8
XFILLER_4_988 VPWR VGND sg13g2_decap_8
XFILLER_3_487 VPWR VGND sg13g2_decap_8
XFILLER_1_0 VPWR VGND sg13g2_decap_8
XFILLER_39_609 VPWR VGND sg13g2_decap_8
XFILLER_38_119 VPWR VGND sg13g2_decap_8
XFILLER_19_300 VPWR VGND sg13g2_decap_8
XFILLER_47_686 VPWR VGND sg13g2_decap_8
XFILLER_19_377 VPWR VGND sg13g2_decap_8
XFILLER_35_826 VPWR VGND sg13g2_decap_8
XFILLER_46_196 VPWR VGND sg13g2_decap_8
XFILLER_34_336 VPWR VGND sg13g2_decap_8
XFILLER_15_561 VPWR VGND sg13g2_decap_8
XFILLER_30_553 VPWR VGND sg13g2_decap_8
XFILLER_7_782 VPWR VGND sg13g2_decap_8
XFILLER_6_292 VPWR VGND sg13g2_decap_8
XFILLER_34_0 VPWR VGND sg13g2_decap_8
XFILLER_1_91 VPWR VGND sg13g2_decap_8
XFILLER_26_837 VPWR VGND sg13g2_decap_8
XFILLER_38_686 VPWR VGND sg13g2_decap_8
XFILLER_25_347 VPWR VGND sg13g2_decap_8
XFILLER_37_196 VPWR VGND sg13g2_decap_8
XFILLER_21_542 VPWR VGND sg13g2_decap_8
XFILLER_4_218 VPWR VGND sg13g2_decap_8
XFILLER_1_903 VPWR VGND sg13g2_decap_8
XFILLER_20_67 VPWR VGND sg13g2_decap_8
XFILLER_0_413 VPWR VGND sg13g2_decap_8
XFILLER_49_907 VPWR VGND sg13g2_decap_8
XFILLER_48_406 VPWR VGND sg13g2_decap_8
XFILLER_29_32 VPWR VGND sg13g2_decap_8
Xhold43 _06_ VPWR VGND net43 sg13g2_dlygate4sd3_1
XFILLER_29_620 VPWR VGND sg13g2_decap_8
XFILLER_28_130 VPWR VGND sg13g2_decap_8
XFILLER_44_623 VPWR VGND sg13g2_decap_8
XFILLER_16_314 VPWR VGND sg13g2_decap_8
XFILLER_17_815 VPWR VGND sg13g2_decap_8
XFILLER_29_697 VPWR VGND sg13g2_decap_8
XFILLER_45_42 VPWR VGND sg13g2_decap_8
XFILLER_43_133 VPWR VGND sg13g2_decap_8
XFILLER_12_520 VPWR VGND sg13g2_decap_8
XFILLER_8_513 VPWR VGND sg13g2_decap_8
XFILLER_40_840 VPWR VGND sg13g2_decap_8
XFILLER_12_597 VPWR VGND sg13g2_decap_8
XFILLER_6_25 VPWR VGND sg13g2_decap_8
XFILLER_6_47 VPWR VGND sg13g2_decap_8
XFILLER_6_36 VPWR VGND sg13g2_fill_2
XFILLER_4_785 VPWR VGND sg13g2_decap_8
XFILLER_3_284 VPWR VGND sg13g2_decap_8
XFILLER_39_406 VPWR VGND sg13g2_decap_8
XFILLER_0_980 VPWR VGND sg13g2_decap_8
XFILLER_48_973 VPWR VGND sg13g2_decap_8
XFILLER_47_483 VPWR VGND sg13g2_decap_8
XFILLER_19_174 VPWR VGND sg13g2_decap_8
XFILLER_35_623 VPWR VGND sg13g2_decap_8
XFILLER_34_133 VPWR VGND sg13g2_decap_8
XFILLER_16_881 VPWR VGND sg13g2_decap_8
XFILLER_22_317 VPWR VGND sg13g2_decap_8
XFILLER_31_840 VPWR VGND sg13g2_decap_8
XFILLER_30_350 VPWR VGND sg13g2_decap_8
XFILLER_39_973 VPWR VGND sg13g2_decap_8
XFILLER_38_483 VPWR VGND sg13g2_decap_8
XFILLER_26_634 VPWR VGND sg13g2_decap_8
XFILLER_14_807 VPWR VGND sg13g2_decap_8
XFILLER_25_144 VPWR VGND sg13g2_decap_8
XFILLER_41_637 VPWR VGND sg13g2_decap_8
XFILLER_13_328 VPWR VGND sg13g2_decap_8
XFILLER_15_67 VPWR VGND sg13g2_decap_8
XFILLER_40_147 VPWR VGND sg13g2_decap_8
XFILLER_22_884 VPWR VGND sg13g2_decap_8
XFILLER_31_77 VPWR VGND sg13g2_decap_8
XFILLER_5_549 VPWR VGND sg13g2_decap_8
XFILLER_1_700 VPWR VGND sg13g2_decap_8
Xoutput11 net11 uo_out[0] VPWR VGND sg13g2_buf_1
Xoutput9 net9 uio_out[6] VPWR VGND sg13g2_buf_1
XFILLER_0_210 VPWR VGND sg13g2_decap_8
XFILLER_49_704 VPWR VGND sg13g2_decap_8
XFILLER_1_777 VPWR VGND sg13g2_decap_8
XFILLER_48_203 VPWR VGND sg13g2_decap_8
XFILLER_0_287 VPWR VGND sg13g2_decap_8
XFILLER_45_910 VPWR VGND sg13g2_decap_8
XFILLER_17_612 VPWR VGND sg13g2_decap_8
XFILLER_44_420 VPWR VGND sg13g2_decap_8
XFILLER_16_111 VPWR VGND sg13g2_decap_8
XFILLER_29_494 VPWR VGND sg13g2_decap_8
XFILLER_45_987 VPWR VGND sg13g2_decap_8
XFILLER_17_689 VPWR VGND sg13g2_decap_8
XFILLER_44_497 VPWR VGND sg13g2_decap_8
XFILLER_16_188 VPWR VGND sg13g2_decap_8
XFILLER_32_637 VPWR VGND sg13g2_decap_8
XFILLER_9_811 VPWR VGND sg13g2_decap_8
XFILLER_31_147 VPWR VGND sg13g2_decap_8
XFILLER_8_310 VPWR VGND sg13g2_decap_8
XFILLER_13_895 VPWR VGND sg13g2_decap_8
XFILLER_9_888 VPWR VGND sg13g2_decap_8
XFILLER_12_394 VPWR VGND sg13g2_decap_8
XFILLER_8_387 VPWR VGND sg13g2_decap_8
XFILLER_4_582 VPWR VGND sg13g2_decap_8
XFILLER_28_1019 VPWR VGND sg13g2_decap_8
XFILLER_39_203 VPWR VGND sg13g2_decap_8
XFILLER_48_770 VPWR VGND sg13g2_decap_8
XFILLER_36_910 VPWR VGND sg13g2_decap_8
XFILLER_47_280 VPWR VGND sg13g2_decap_8
XFILLER_35_420 VPWR VGND sg13g2_decap_8
XFILLER_36_987 VPWR VGND sg13g2_decap_8
XFILLER_22_114 VPWR VGND sg13g2_decap_8
XFILLER_23_648 VPWR VGND sg13g2_decap_8
XFILLER_35_497 VPWR VGND sg13g2_decap_8
XFILLER_11_1001 VPWR VGND sg13g2_decap_8
XFILLER_46_707 VPWR VGND sg13g2_decap_8
XFILLER_45_217 VPWR VGND sg13g2_decap_8
XFILLER_18_409 VPWR VGND sg13g2_decap_8
XFILLER_39_770 VPWR VGND sg13g2_decap_8
XFILLER_26_11 VPWR VGND sg13g2_decap_8
XFILLER_26_431 VPWR VGND sg13g2_decap_8
XFILLER_27_954 VPWR VGND sg13g2_decap_8
XFILLER_38_280 VPWR VGND sg13g2_decap_8
XFILLER_14_604 VPWR VGND sg13g2_decap_8
XFILLER_42_924 VPWR VGND sg13g2_decap_8
XFILLER_26_88 VPWR VGND sg13g2_decap_8
XFILLER_41_434 VPWR VGND sg13g2_decap_8
XFILLER_42_21 VPWR VGND sg13g2_decap_8
XFILLER_10_821 VPWR VGND sg13g2_decap_8
XFILLER_6_803 VPWR VGND sg13g2_decap_8
XFILLER_22_681 VPWR VGND sg13g2_decap_8
XFILLER_42_98 VPWR VGND sg13g2_decap_8
XFILLER_5_346 VPWR VGND sg13g2_decap_8
XFILLER_10_898 VPWR VGND sg13g2_decap_8
XFILLER_49_501 VPWR VGND sg13g2_decap_8
XFILLER_1_574 VPWR VGND sg13g2_decap_8
X_80_ net5 net13 VPWR VGND sg13g2_buf_1
XFILLER_37_707 VPWR VGND sg13g2_decap_8
XFILLER_49_578 VPWR VGND sg13g2_decap_8
XFILLER_36_217 VPWR VGND sg13g2_decap_8
XFILLER_29_291 VPWR VGND sg13g2_decap_8
XFILLER_18_976 VPWR VGND sg13g2_decap_8
XFILLER_45_784 VPWR VGND sg13g2_decap_8
XFILLER_17_486 VPWR VGND sg13g2_decap_8
XFILLER_33_924 VPWR VGND sg13g2_decap_8
XFILLER_44_294 VPWR VGND sg13g2_decap_8
XFILLER_32_434 VPWR VGND sg13g2_decap_8
XFILLER_34_1001 VPWR VGND sg13g2_decap_8
XFILLER_13_692 VPWR VGND sg13g2_decap_8
XFILLER_9_685 VPWR VGND sg13g2_decap_8
XFILLER_12_191 VPWR VGND sg13g2_decap_8
XFILLER_8_184 VPWR VGND sg13g2_decap_8
XFILLER_28_718 VPWR VGND sg13g2_decap_8
XFILLER_24_935 VPWR VGND sg13g2_decap_8
XFILLER_36_784 VPWR VGND sg13g2_decap_8
XFILLER_23_445 VPWR VGND sg13g2_decap_8
XFILLER_35_294 VPWR VGND sg13g2_decap_8
XFILLER_10_128 VPWR VGND sg13g2_decap_8
XFILLER_12_46 VPWR VGND sg13g2_decap_8
XFILLER_46_504 VPWR VGND sg13g2_decap_8
XFILLER_18_206 VPWR VGND sg13g2_decap_8
XFILLER_37_21 VPWR VGND sg13g2_decap_8
XFILLER_27_751 VPWR VGND sg13g2_decap_8
XFILLER_37_98 VPWR VGND sg13g2_decap_8
XFILLER_42_721 VPWR VGND sg13g2_decap_8
XFILLER_14_401 VPWR VGND sg13g2_decap_8
XFILLER_15_946 VPWR VGND sg13g2_decap_8
XFILLER_18_1018 VPWR VGND sg13g2_decap_8