* NGSPICE file created from heichips25_internal.ext - technology: ihp-sg13g2

* Black-box entry subcircuit for sg13g2_decap_8 abstract view
.subckt sg13g2_decap_8 VDD VSS
.ends

* Black-box entry subcircuit for sg13g2_dfrbpq_1 abstract view
.subckt sg13g2_dfrbpq_1 RESET_B VSS VDD D Q CLK
.ends

* Black-box entry subcircuit for sg13g2_fill_2 abstract view
.subckt sg13g2_fill_2 VDD VSS
.ends

* Black-box entry subcircuit for sg13g2_mux2_1 abstract view
.subckt sg13g2_mux2_1 A0 A1 S X VDD VSS
.ends

* Black-box entry subcircuit for sg13g2_antennanp abstract view
.subckt sg13g2_antennanp VDD VSS A
.ends

* Black-box entry subcircuit for sg13g2_decap_4 abstract view
.subckt sg13g2_decap_4 VDD VSS
.ends

* Black-box entry subcircuit for sg13g2_buf_1 abstract view
.subckt sg13g2_buf_1 A X VDD VSS
.ends

* Black-box entry subcircuit for sg13g2_fill_1 abstract view
.subckt sg13g2_fill_1 VDD VSS
.ends

* Black-box entry subcircuit for sg13g2_a21oi_1 abstract view
.subckt sg13g2_a21oi_1 VSS VDD A1 A2 Y B1
.ends

* Black-box entry subcircuit for sg13g2_nor2_1 abstract view
.subckt sg13g2_nor2_1 A B Y VDD VSS
.ends

* Black-box entry subcircuit for sg13g2_buf_8 abstract view
.subckt sg13g2_buf_8 A X VDD VSS
.ends

* Black-box entry subcircuit for sg13g2_tielo abstract view
.subckt sg13g2_tielo VDD VSS L_LO
.ends

* Black-box entry subcircuit for delay_line abstract view
.subckt delay_line VDD VSS clk clk_delayed reset sel[0] sel[1] sel[2] trim[0] trim[1]
+ trim[2] trim[3] trim[4] trim[5] trim[6] trim[7]
.ends

* Black-box entry subcircuit for sg13g2_inv_1 abstract view
.subckt sg13g2_inv_1 VDD Y A VSS
.ends

* Black-box entry subcircuit for sg13g2_and4_1 abstract view
.subckt sg13g2_and4_1 A B C D X VDD VSS
.ends

* Black-box entry subcircuit for sg13g2_and2_1 abstract view
.subckt sg13g2_and2_1 A B X VDD VSS
.ends

* Black-box entry subcircuit for sg13g2_xor2_1 abstract view
.subckt sg13g2_xor2_1 B A X VDD VSS
.ends

* Black-box entry subcircuit for sg13g2_buf_16 abstract view
.subckt sg13g2_buf_16 X A VDD VSS
.ends

* Black-box entry subcircuit for sg13g2_nand2_1 abstract view
.subckt sg13g2_nand2_1 Y A B VDD VSS
.ends

* Black-box entry subcircuit for sg13g2_and3_1 abstract view
.subckt sg13g2_and3_1 X A B C VDD VSS
.ends

* Black-box entry subcircuit for sg13g2_a22oi_1 abstract view
.subckt sg13g2_a22oi_1 Y B1 B2 A2 A1 VDD VSS
.ends

* Black-box entry subcircuit for sg13g2_xnor2_1 abstract view
.subckt sg13g2_xnor2_1 Y A B VDD VSS
.ends

* Black-box entry subcircuit for sg13g2_nand3_1 abstract view
.subckt sg13g2_nand3_1 B C A Y VDD VSS
.ends

* Black-box entry subcircuit for sg13g2_a21o_1 abstract view
.subckt sg13g2_a21o_1 A2 A1 B1 X VDD VSS
.ends

* Black-box entry subcircuit for sg13g2_dlhq_1 abstract view
.subckt sg13g2_dlhq_1 D GATE Q VDD VSS
.ends

* Black-box entry subcircuit for sg13g2_o21ai_1 abstract view
.subckt sg13g2_o21ai_1 B1 VDD Y VSS A1 A2
.ends

* Black-box entry subcircuit for adc abstract view
.subckt adc VDD VSS analog_in clk data_out[0] data_out[1] data_out[2] data_out[3]
+ data_out[4] data_out[5] data_out[6] data_out[7] ready start
.ends

* Black-box entry subcircuit for multimode_dll abstract view
.subckt multimode_dll VDD VSS bias clk0_out clk0_phase_sel[0] clk0_phase_sel[1] clk0_phase_sel[2]
+ clk0_phase_sel[3] clk0_phase_sel[4] clk1_out clk1_phase_sel[0] clk1_phase_sel[1]
+ clk1_phase_sel[2] clk1_phase_sel[3] clk1_phase_sel[4] clk2_out clk2_phase_sel[0]
+ clk2_phase_sel[1] clk2_phase_sel[2] clk2_phase_sel[3] clk2_phase_sel[4] dco enable
+ ext_trim[0] ext_trim[10] ext_trim[11] ext_trim[12] ext_trim[13] ext_trim[14] ext_trim[15]
+ ext_trim[16] ext_trim[17] ext_trim[18] ext_trim[19] ext_trim[1] ext_trim[20] ext_trim[21]
+ ext_trim[22] ext_trim[23] ext_trim[24] ext_trim[25] ext_trim[2] ext_trim[3] ext_trim[4]
+ ext_trim[5] ext_trim[6] ext_trim[7] ext_trim[8] ext_trim[9] f_clk0_divider[0] f_clk0_divider[1]
+ f_clk0_divider[2] f_clk0_divider[3] f_clk0_divider[4] f_clk1_divider[0] f_clk1_divider[1]
+ f_clk1_divider[2] f_clk1_divider[3] f_clk1_divider[4] f_clk2_divider[0] f_clk2_divider[1]
+ f_clk2_divider[2] f_clk2_divider[3] f_clk2_divider[4] f_osc_multiply_factor[0] f_osc_multiply_factor[1]
+ f_osc_multiply_factor[2] f_osc_multiply_factor[3] f_osc_multiply_factor[4] mode_xor[0]
+ mode_xor[1] mode_xor[2] osc osc_out resetb stable
.ends

* Black-box entry subcircuit for sg13g2_nand4_1 abstract view
.subckt sg13g2_nand4_1 B C A Y VDD VSS D
.ends

* Black-box entry subcircuit for sg13g2_nor3_1 abstract view
.subckt sg13g2_nor3_1 A B C Y VDD VSS
.ends

* Black-box entry subcircuit for sg13g2_nand2b_1 abstract view
.subckt sg13g2_nand2b_1 Y B A_N VDD VSS
.ends

* Black-box entry subcircuit for sg13g2_nor2b_1 abstract view
.subckt sg13g2_nor2b_1 A B_N Y VDD VSS
.ends

* Black-box entry subcircuit for sg13g2_mux4_1 abstract view
.subckt sg13g2_mux4_1 S0 A0 A1 A2 A3 S1 X VDD VSS
.ends

.subckt heichips25_internal VGND VPWR analog_adc analog_pin0 analog_pin1 clk ena rst_n
+ ui_in[0] ui_in[1] ui_in[2] ui_in[3] ui_in[4] ui_in[5] ui_in[6] ui_in[7] uio_in[0]
+ uio_in[1] uio_in[2] uio_in[3] uio_in[4] uio_in[5] uio_in[6] uio_in[7] uio_oe[0]
+ uio_oe[1] uio_oe[2] uio_oe[3] uio_oe[4] uio_oe[5] uio_oe[6] uio_oe[7] uio_out[0]
+ uio_out[1] uio_out[2] uio_out[3] uio_out[4] uio_out[5] uio_out[6] uio_out[7] uo_out[0]
+ uo_out[1] uo_out[2] uo_out[3] uo_out[4] uo_out[5] uo_out[6] uo_out[7]
XFILLER_11_807 VPWR VGND sg13g2_decap_8
XFILLER_7_7 VPWR VGND sg13g2_decap_8
XFILLER_46_704 VPWR VGND sg13g2_decap_8
XFILLER_27_973 VPWR VGND sg13g2_decap_8
XFILLER_6_800 VPWR VGND sg13g2_decap_8
X_294_ net42 VGND VPWR _031_ data\[23\] clknet_4_14_0_clk_regs sg13g2_dfrbpq_1
XFILLER_5_343 VPWR VGND sg13g2_decap_8
XFILLER_49_542 VPWR VGND sg13g2_decap_8
XFILLER_3_67 VPWR VGND sg13g2_decap_8
XFILLER_45_770 VPWR VGND sg13g2_decap_8
XFILLER_5_4 VPWR VGND sg13g2_decap_8
XFILLER_3_803 VPWR VGND sg13g2_decap_8
XFILLER_46_534 VPWR VGND sg13g2_fill_2
X_346_ net45 VGND VPWR _083_ data\[75\] clknet_4_11_0_clk_regs sg13g2_dfrbpq_1
XFILLER_46_578 VPWR VGND sg13g2_decap_8
X_277_ net43 VGND VPWR _014_ data\[6\] clknet_4_8_0_clk_regs sg13g2_dfrbpq_1
XFILLER_5_151 VPWR VGND sg13g2_decap_8
XFILLER_49_372 VPWR VGND sg13g2_decap_8
X_200_ data\[24\] data\[25\] net20 _033_ VPWR VGND sg13g2_mux2_1
X_131_ data\[78\] data\[79\] data\[82\] _098_ VPWR VGND sg13g2_mux2_1
XFILLER_3_600 VPWR VGND sg13g2_decap_8
XFILLER_2_165 VPWR VGND sg13g2_decap_8
XFILLER_3_677 VPWR VGND sg13g2_decap_8
XFILLER_0_35 VPWR VGND sg13g2_decap_8
XFILLER_47_854 VPWR VGND sg13g2_decap_8
XFILLER_9_11 VPWR VGND sg13g2_decap_8
X_329_ net34 VGND VPWR _066_ data\[58\] clknet_4_6_0_clk_regs sg13g2_dfrbpq_1
XFILLER_38_854 VPWR VGND sg13g2_decap_8
XFILLER_21_765 VPWR VGND sg13g2_decap_8
XFILLER_0_636 VPWR VGND sg13g2_decap_8
XFILLER_12_765 VPWR VGND sg13g2_decap_8
XFILLER_47_651 VPWR VGND sg13g2_decap_8
XFILLER_46_150 VPWR VGND sg13g2_fill_2
XFILLER_26_835 VPWR VGND sg13g2_decap_8
XFILLER_20_54 VPWR VGND sg13g2_fill_2
XFILLER_48_459 VPWR VGND sg13g2_decap_8
XFILLER_45_84 VPWR VGND sg13g2_decap_8
XANTENNA_5 VPWR VGND adc_data\[2\] sg13g2_antennanp
XFILLER_3_293 VPWR VGND sg13g2_decap_8
XFILLER_20_4 VPWR VGND sg13g2_decap_4
XFILLER_2_709 VPWR VGND sg13g2_decap_8
Xoutput7 net7 uio_out[1] VPWR VGND sg13g2_buf_1
XFILLER_5_569 VPWR VGND sg13g2_decap_8
XFILLER_0_252 VPWR VGND sg13g2_decap_8
XFILLER_0_285 VPWR VGND sg13g2_fill_1
XFILLER_1_786 VPWR VGND sg13g2_decap_8
XFILLER_49_779 VPWR VGND sg13g2_decap_8
XFILLER_27_952 VPWR VGND sg13g2_decap_8
X_293_ net37 VGND VPWR _030_ data\[22\] clknet_4_15_0_clk_regs sg13g2_dfrbpq_1
XFILLER_1_583 VPWR VGND sg13g2_decap_8
XFILLER_49_521 VPWR VGND sg13g2_decap_8
XFILLER_3_46 VPWR VGND sg13g2_decap_8
XFILLER_49_598 VPWR VGND sg13g2_decap_8
XFILLER_12_11 VPWR VGND sg13g2_decap_8
XFILLER_2_336 VPWR VGND sg13g2_decap_8
XFILLER_46_557 VPWR VGND sg13g2_decap_8
XFILLER_46_513 VPWR VGND sg13g2_decap_8
XFILLER_27_793 VPWR VGND sg13g2_decap_8
X_276_ net43 VGND VPWR _013_ data\[5\] clknet_4_9_0_clk_regs sg13g2_dfrbpq_1
X_345_ net44 VGND VPWR _082_ data\[74\] clknet_4_10_0_clk_regs sg13g2_dfrbpq_1
XFILLER_5_130 VPWR VGND sg13g2_decap_8
XFILLER_49_351 VPWR VGND sg13g2_decap_8
XFILLER_18_793 VPWR VGND sg13g2_decap_8
XFILLER_0_818 VPWR VGND sg13g2_decap_8
XFILLER_23_21 VPWR VGND sg13g2_decap_8
X_130_ data\[80\] data\[81\] data\[82\] _097_ VPWR VGND sg13g2_mux2_1
XFILLER_2_144 VPWR VGND sg13g2_decap_8
XFILLER_48_84 VPWR VGND sg13g2_decap_8
XFILLER_47_833 VPWR VGND sg13g2_decap_8
XFILLER_3_656 VPWR VGND sg13g2_decap_8
XFILLER_0_14 VPWR VGND sg13g2_decap_8
X_259_ VGND VPWR _096_ net22 _091_ _126_ sg13g2_a21oi_1
X_328_ net34 VGND VPWR _065_ data\[57\] clknet_4_6_0_clk_regs sg13g2_dfrbpq_1
XFILLER_30_799 VPWR VGND sg13g2_decap_8
XFILLER_38_800 VPWR VGND sg13g2_decap_8
XFILLER_4_409 VPWR VGND sg13g2_fill_1
XFILLER_0_615 VPWR VGND sg13g2_decap_8
XFILLER_18_54 VPWR VGND sg13g2_fill_2
XFILLER_29_855 VPWR VGND sg13g2_decap_8
XFILLER_44_825 VPWR VGND sg13g2_decap_8
XFILLER_47_630 VPWR VGND sg13g2_decap_8
XFILLER_35_814 VPWR VGND sg13g2_decap_8
XFILLER_41_0 VPWR VGND sg13g2_decap_8
XFILLER_26_814 VPWR VGND sg13g2_decap_8
XFILLER_41_828 VPWR VGND sg13g2_decap_8
XFILLER_17_814 VPWR VGND sg13g2_decap_8
XFILLER_25_891 VPWR VGND sg13g2_decap_8
XFILLER_45_63 VPWR VGND sg13g2_decap_8
XFILLER_44_699 VPWR VGND sg13g2_decap_8
XFILLER_6_46 VPWR VGND sg13g2_decap_8
XFILLER_4_795 VPWR VGND sg13g2_decap_8
XFILLER_13_4 VPWR VGND sg13g2_decap_4
XFILLER_23_828 VPWR VGND sg13g2_decap_8
XFILLER_31_861 VPWR VGND sg13g2_fill_1
XFILLER_14_828 VPWR VGND sg13g2_decap_8
XFILLER_31_32 VPWR VGND sg13g2_decap_4
XFILLER_0_231 VPWR VGND sg13g2_decap_8
XFILLER_1_765 VPWR VGND sg13g2_decap_8
Xoutput8 net8 uio_out[2] VPWR VGND sg13g2_buf_1
Xoutput10 net10 uio_out[4] VPWR VGND sg13g2_buf_1
XFILLER_5_548 VPWR VGND sg13g2_decap_8
XFILLER_49_703 VPWR VGND sg13g2_decap_8
XFILLER_49_758 VPWR VGND sg13g2_decap_8
XFILLER_48_257 VPWR VGND sg13g2_decap_4
XFILLER_9_821 VPWR VGND sg13g2_decap_8
XFILLER_44_474 VPWR VGND sg13g2_fill_2
XFILLER_4_592 VPWR VGND sg13g2_decap_8
XFILLER_27_931 VPWR VGND sg13g2_decap_8
XFILLER_46_739 VPWR VGND sg13g2_decap_4
XFILLER_45_227 VPWR VGND sg13g2_decap_8
X_292_ net42 VGND VPWR _029_ data\[21\] clknet_4_8_0_clk_regs sg13g2_dfrbpq_1
XFILLER_42_42 VPWR VGND sg13g2_decap_8
XFILLER_5_389 VPWR VGND sg13g2_decap_4
XFILLER_1_562 VPWR VGND sg13g2_decap_8
XFILLER_49_500 VPWR VGND sg13g2_decap_8
XFILLER_3_25 VPWR VGND sg13g2_decap_8
XFILLER_49_577 VPWR VGND sg13g2_decap_8
XFILLER_2_315 VPWR VGND sg13g2_decap_8
XFILLER_27_772 VPWR VGND sg13g2_decap_8
XFILLER_46_536 VPWR VGND sg13g2_fill_1
XFILLER_37_42 VPWR VGND sg13g2_decap_8
X_275_ net40 VGND VPWR _012_ data\[4\] clknet_4_13_0_clk_regs sg13g2_dfrbpq_1
X_344_ net44 VGND VPWR _081_ data\[73\] clknet_4_11_0_clk_regs sg13g2_dfrbpq_1
XFILLER_42_786 VPWR VGND sg13g2_decap_8
XFILLER_45_7 VPWR VGND sg13g2_decap_8
XFILLER_49_330 VPWR VGND sg13g2_decap_8
XFILLER_18_772 VPWR VGND sg13g2_decap_8
XFILLER_33_786 VPWR VGND sg13g2_decap_8
XFILLER_23_11 VPWR VGND sg13g2_fill_2
XFILLER_24_786 VPWR VGND sg13g2_decap_8
XFILLER_2_123 VPWR VGND sg13g2_decap_8
XFILLER_3_635 VPWR VGND sg13g2_decap_8
XFILLER_48_63 VPWR VGND sg13g2_decap_8
XFILLER_47_812 VPWR VGND sg13g2_decap_8
XFILLER_15_786 VPWR VGND sg13g2_decap_8
X_189_ data\[13\] data\[14\] net19 _022_ VPWR VGND sg13g2_mux2_1
X_258_ data\[82\] net21 _126_ VPWR VGND sg13g2_nor2_1
X_327_ net34 VGND VPWR _064_ data\[56\] clknet_4_7_0_clk_regs sg13g2_dfrbpq_1
XFILLER_30_778 VPWR VGND sg13g2_decap_8
Xclkbuf_4_9_0_clk_regs clknet_0_clk_regs clknet_4_9_0_clk_regs VPWR VGND sg13g2_buf_8
XFILLER_49_193 VPWR VGND sg13g2_decap_8
XFILLER_29_834 VPWR VGND sg13g2_decap_8
XFILLER_47_119 VPWR VGND sg13g2_decap_8
XFILLER_44_804 VPWR VGND sg13g2_decap_8
XFILLER_34_21 VPWR VGND sg13g2_decap_8
XFILLER_1_0 VPWR VGND sg13g2_decap_8
XFILLER_3_432 VPWR VGND sg13g2_decap_8
XFILLER_47_686 VPWR VGND sg13g2_decap_8
XFILLER_7_793 VPWR VGND sg13g2_decap_8
XFILLER_34_0 VPWR VGND sg13g2_decap_8
XFILLER_1_91 VPWR VGND sg13g2_decap_8
XFILLER_41_807 VPWR VGND sg13g2_decap_8
XFILLER_0_424 VPWR VGND sg13g2_decap_8
XFILLER_4_229 VPWR VGND sg13g2_decap_8
XFILLER_0_479 VPWR VGND sg13g2_decap_8
XFILLER_44_612 VPWR VGND sg13g2_decap_8
XFILLER_25_870 VPWR VGND sg13g2_decap_8
XFILLER_45_42 VPWR VGND sg13g2_decap_8
XFILLER_44_678 VPWR VGND sg13g2_fill_1
XFILLER_32_807 VPWR VGND sg13g2_decap_8
XFILLER_6_25 VPWR VGND sg13g2_decap_8
XFILLER_4_774 VPWR VGND sg13g2_decap_8
XFILLER_23_807 VPWR VGND sg13g2_decap_8
XFILLER_47_483 VPWR VGND sg13g2_decap_8
XFILLER_14_807 VPWR VGND sg13g2_decap_8
XFILLER_5_527 VPWR VGND sg13g2_decap_4
XFILLER_31_55 VPWR VGND sg13g2_fill_1
XFILLER_31_11 VPWR VGND sg13g2_decap_8
XFILLER_0_210 VPWR VGND sg13g2_decap_8
XFILLER_1_744 VPWR VGND sg13g2_decap_8
Xoutput9 net9 uio_out[3] VPWR VGND sg13g2_buf_1
Xoutput11 net11 uio_out[5] VPWR VGND sg13g2_buf_1
XFILLER_49_737 VPWR VGND sg13g2_decap_8
XFILLER_44_431 VPWR VGND sg13g2_fill_2
XFILLER_44_420 VPWR VGND sg13g2_fill_1
XFILLER_9_800 VPWR VGND sg13g2_decap_8
XFILLER_48_781 VPWR VGND sg13g2_decap_8
XFILLER_26_11 VPWR VGND sg13g2_fill_2
XFILLER_26_55 VPWR VGND sg13g2_fill_1
XFILLER_27_910 VPWR VGND sg13g2_decap_8
XFILLER_27_987 VPWR VGND sg13g2_decap_8
XFILLER_46_718 VPWR VGND sg13g2_decap_8
XFILLER_10_821 VPWR VGND sg13g2_decap_8
X_291_ net42 VGND VPWR _028_ data\[20\] clknet_4_14_0_clk_regs sg13g2_dfrbpq_1
XFILLER_42_54 VPWR VGND sg13g2_fill_2
XFILLER_42_21 VPWR VGND sg13g2_decap_8
XFILLER_6_814 VPWR VGND sg13g2_decap_8
Xclkbuf_4_11_0_clk_regs clknet_0_clk_regs clknet_4_11_0_clk_regs VPWR VGND sg13g2_buf_8
XFILLER_5_357 VPWR VGND sg13g2_decap_8
XFILLER_49_556 VPWR VGND sg13g2_decap_8
XFILLER_45_784 VPWR VGND sg13g2_decap_8
XFILLER_3_817 VPWR VGND sg13g2_decap_8
XFILLER_37_21 VPWR VGND sg13g2_decap_8
XFILLER_42_765 VPWR VGND sg13g2_decap_8
X_274_ net39 VGND VPWR _011_ data\[3\] clknet_4_13_0_clk_regs sg13g2_dfrbpq_1
X_343_ net45 VGND VPWR _080_ data\[72\] clknet_4_11_0_clk_regs sg13g2_dfrbpq_1
XFILLER_5_187 VPWR VGND sg13g2_decap_8
XFILLER_38_7 VPWR VGND sg13g2_decap_8
XFILLER_49_386 VPWR VGND sg13g2_decap_8
XFILLER_45_581 VPWR VGND sg13g2_decap_8
XFILLER_33_765 VPWR VGND sg13g2_decap_8
XFILLER_24_765 VPWR VGND sg13g2_decap_8
Xheichips25_internal_60 VPWR VGND uo_out[6] sg13g2_tielo
XFILLER_2_102 VPWR VGND sg13g2_decap_8
XFILLER_2_179 VPWR VGND sg13g2_decap_8
XFILLER_3_614 VPWR VGND sg13g2_decap_8
XFILLER_3_4 VPWR VGND sg13g2_decap_8
XFILLER_0_49 VPWR VGND sg13g2_decap_8
XFILLER_48_42 VPWR VGND sg13g2_decap_8
XFILLER_46_356 VPWR VGND sg13g2_decap_4
XFILLER_46_301 VPWR VGND sg13g2_decap_8
XFILLER_15_765 VPWR VGND sg13g2_decap_8
XFILLER_9_25 VPWR VGND sg13g2_decap_4
X_326_ net33 VGND VPWR _063_ data\[55\] clknet_4_7_0_clk_regs sg13g2_dfrbpq_1
XFILLER_46_389 VPWR VGND sg13g2_decap_4
X_188_ data\[12\] data\[13\] net19 _021_ VPWR VGND sg13g2_mux2_1
X_257_ data\[82\] data\[81\] net29 _090_ VPWR VGND sg13g2_mux2_1
XFILLER_49_172 VPWR VGND sg13g2_decap_8
XFILLER_21_779 VPWR VGND sg13g2_decap_8
XFILLER_29_813 VPWR VGND sg13g2_decap_8
XFILLER_12_779 VPWR VGND sg13g2_decap_8
XFILLER_47_665 VPWR VGND sg13g2_decap_8
XFILLER_46_197 VPWR VGND sg13g2_fill_1
XFILLER_46_186 VPWR VGND sg13g2_decap_4
X_309_ net37 VGND VPWR _046_ data\[38\] clknet_4_2_0_clk_regs sg13g2_dfrbpq_1
XFILLER_43_860 VPWR VGND sg13g2_fill_2
XFILLER_7_772 VPWR VGND sg13g2_decap_8
XFILLER_27_0 VPWR VGND sg13g2_decap_8
XFILLER_1_70 VPWR VGND sg13g2_decap_8
XFILLER_5_709 VPWR VGND sg13g2_decap_8
XFILLER_29_11 VPWR VGND sg13g2_decap_8
XFILLER_45_21 VPWR VGND sg13g2_decap_8
XFILLER_45_98 VPWR VGND sg13g2_decap_8
XFILLER_4_753 VPWR VGND sg13g2_decap_8
XFILLER_3_252 VPWR VGND sg13g2_decap_8
Xoutput12 net12 uio_out[6] VPWR VGND sg13g2_buf_1
XFILLER_5_506 VPWR VGND sg13g2_decap_8
XFILLER_1_723 VPWR VGND sg13g2_decap_8
XFILLER_44_476 VPWR VGND sg13g2_fill_1
XFILLER_48_760 VPWR VGND sg13g2_decap_8
XFILLER_27_966 VPWR VGND sg13g2_decap_8
XFILLER_39_793 VPWR VGND sg13g2_decap_8
XFILLER_10_800 VPWR VGND sg13g2_decap_8
X_290_ net43 VGND VPWR _027_ data\[19\] clknet_4_8_0_clk_regs sg13g2_dfrbpq_1
XFILLER_5_336 VPWR VGND sg13g2_decap_8
XFILLER_1_597 VPWR VGND sg13g2_decap_8
XFILLER_49_535 VPWR VGND sg13g2_decap_8
XFILLER_45_763 VPWR VGND sg13g2_decap_8
XFILLER_44_284 VPWR VGND sg13g2_fill_1
XFILLER_12_25 VPWR VGND sg13g2_decap_4
XFILLER_46_527 VPWR VGND sg13g2_decap_8
X_342_ net44 VGND VPWR _079_ data\[71\] clknet_4_11_0_clk_regs sg13g2_dfrbpq_1
X_273_ net39 VGND VPWR _010_ data\[2\] clknet_4_12_0_clk_regs sg13g2_dfrbpq_1
XFILLER_5_144 VPWR VGND sg13g2_decap_8
XFILLER_49_365 VPWR VGND sg13g2_decap_8
XFILLER_4_81 VPWR VGND sg13g2_decap_8
Xheichips25_internal_61 VPWR VGND uo_out[7] sg13g2_tielo
Xheichips25_internal_50 VPWR VGND uio_oe[4] sg13g2_tielo
XFILLER_2_158 VPWR VGND sg13g2_decap_8
XFILLER_48_21 VPWR VGND sg13g2_decap_8
XFILLER_0_28 VPWR VGND sg13g2_decap_8
XFILLER_48_98 VPWR VGND sg13g2_decap_8
XFILLER_47_847 VPWR VGND sg13g2_decap_8
X_325_ net33 VGND VPWR _062_ data\[54\] clknet_4_5_0_clk_regs sg13g2_dfrbpq_1
X_187_ data\[11\] data\[12\] net21 _020_ VPWR VGND sg13g2_mux2_1
X_256_ data\[80\] data\[81\] net21 _089_ VPWR VGND sg13g2_mux2_1
XFILLER_29_4 VPWR VGND sg13g2_decap_8
XFILLER_49_151 VPWR VGND sg13g2_decap_8
XFILLER_38_814 VPWR VGND sg13g2_fill_2
XFILLER_2_681 VPWR VGND sg13g2_decap_8
XFILLER_0_629 VPWR VGND sg13g2_decap_8
Xu_delay_line VPWR VGND clknet_1_0__leaf_clk clk_delayed net44 data\[75\] data\[76\]
+ data\[77\] data\[67\] data\[68\] data\[69\] data\[70\] data\[71\] data\[72\] data\[73\]
+ data\[74\] delay_line
Xclkload0 VPWR clkload0/Y clknet_4_7_0_clk_regs VGND sg13g2_inv_1
XFILLER_3_412 VPWR VGND sg13g2_decap_8
XFILLER_47_644 VPWR VGND sg13g2_decap_8
XFILLER_35_828 VPWR VGND sg13g2_decap_8
X_239_ data\[63\] data\[64\] net14 _072_ VPWR VGND sg13g2_mux2_1
X_308_ net37 VGND VPWR _045_ data\[37\] clknet_4_3_0_clk_regs sg13g2_dfrbpq_1
XFILLER_26_828 VPWR VGND sg13g2_decap_8
XFILLER_20_47 VPWR VGND sg13g2_decap_8
XFILLER_17_828 VPWR VGND sg13g2_decap_8
XFILLER_45_77 VPWR VGND sg13g2_decap_8
XFILLER_4_732 VPWR VGND sg13g2_decap_8
XFILLER_20_8 VPWR VGND sg13g2_fill_2
XFILLER_31_831 VPWR VGND sg13g2_fill_1
XFILLER_15_25 VPWR VGND sg13g2_decap_4
XFILLER_1_702 VPWR VGND sg13g2_decap_8
Xoutput13 net13 uio_out[7] VPWR VGND sg13g2_buf_1
XFILLER_0_245 VPWR VGND sg13g2_decap_8
XFILLER_0_278 VPWR VGND sg13g2_decap_8
XFILLER_1_779 VPWR VGND sg13g2_decap_8
XFILLER_49_717 VPWR VGND sg13g2_decap_8
XFILLER_0_790 VPWR VGND sg13g2_decap_8
XFILLER_11_4 VPWR VGND sg13g2_decap_8
XFILLER_47_293 VPWR VGND sg13g2_fill_2
XFILLER_39_772 VPWR VGND sg13g2_decap_8
XFILLER_26_13 VPWR VGND sg13g2_fill_1
XFILLER_27_945 VPWR VGND sg13g2_decap_8
XFILLER_1_576 VPWR VGND sg13g2_decap_8
XFILLER_49_514 VPWR VGND sg13g2_decap_8
XFILLER_3_39 VPWR VGND sg13g2_decap_8
XFILLER_45_742 VPWR VGND sg13g2_decap_8
XFILLER_4_370 VPWR VGND sg13g2_fill_1
XFILLER_36_797 VPWR VGND sg13g2_decap_8
XFILLER_27_786 VPWR VGND sg13g2_decap_8
X_272_ net38 VGND VPWR _009_ data\[1\] clknet_4_12_0_clk_regs sg13g2_dfrbpq_1
X_341_ net44 VGND VPWR _078_ data\[70\] clknet_4_10_0_clk_regs sg13g2_dfrbpq_1
XFILLER_5_123 VPWR VGND sg13g2_decap_8
XFILLER_49_344 VPWR VGND sg13g2_decap_8
XFILLER_18_786 VPWR VGND sg13g2_decap_8
XFILLER_4_60 VPWR VGND sg13g2_decap_8
Xheichips25_internal_51 VPWR VGND uio_oe[5] sg13g2_tielo
XFILLER_2_137 VPWR VGND sg13g2_decap_8
XFILLER_3_649 VPWR VGND sg13g2_decap_8
XFILLER_48_77 VPWR VGND sg13g2_decap_8
XFILLER_47_826 VPWR VGND sg13g2_decap_8
X_255_ data\[79\] data\[80\] net21 _088_ VPWR VGND sg13g2_mux2_1
X_324_ net33 VGND VPWR _061_ data\[53\] clknet_4_5_0_clk_regs sg13g2_dfrbpq_1
X_186_ data\[10\] data\[11\] net21 _019_ VPWR VGND sg13g2_mux2_1
XFILLER_43_7 VPWR VGND sg13g2_decap_8
XFILLER_2_660 VPWR VGND sg13g2_decap_8
XFILLER_49_130 VPWR VGND sg13g2_decap_8
XFILLER_0_608 VPWR VGND sg13g2_decap_8
XFILLER_18_47 VPWR VGND sg13g2_decap_8
XFILLER_29_848 VPWR VGND sg13g2_decap_8
XFILLER_44_818 VPWR VGND sg13g2_decap_8
Xclkload1 VPWR clkload1/Y clknet_4_15_0_clk_regs VGND sg13g2_inv_1
XFILLER_34_35 VPWR VGND sg13g2_decap_4
XFILLER_3_468 VPWR VGND sg13g2_decap_8
XFILLER_3_446 VPWR VGND sg13g2_decap_4
XFILLER_47_623 VPWR VGND sg13g2_decap_8
XFILLER_46_133 VPWR VGND sg13g2_fill_2
XFILLER_35_807 VPWR VGND sg13g2_decap_8
X_169_ u_shift_reg.bit_count\[1\] net29 _114_ _122_ _123_ VPWR VGND sg13g2_and4_1
X_238_ data\[62\] data\[63\] net14 _071_ VPWR VGND sg13g2_mux2_1
X_307_ net37 VGND VPWR _044_ data\[36\] clknet_4_15_0_clk_regs sg13g2_dfrbpq_1
XFILLER_2_490 VPWR VGND sg13g2_decap_8
XFILLER_26_807 VPWR VGND sg13g2_decap_8
XFILLER_0_449 VPWR VGND sg13g2_decap_4
XFILLER_17_807 VPWR VGND sg13g2_decap_8
XFILLER_25_884 VPWR VGND sg13g2_decap_8
XFILLER_45_56 VPWR VGND sg13g2_decap_8
XFILLER_44_626 VPWR VGND sg13g2_decap_8
XFILLER_40_821 VPWR VGND sg13g2_decap_8
Xclkbuf_4_8_0_clk_regs clknet_0_clk_regs clknet_4_8_0_clk_regs VPWR VGND sg13g2_buf_8
XFILLER_6_39 VPWR VGND sg13g2_decap_8
XFILLER_40_843 VPWR VGND sg13g2_fill_1
XFILLER_40_832 VPWR VGND sg13g2_fill_1
XFILLER_4_788 VPWR VGND sg13g2_decap_8
XFILLER_4_711 VPWR VGND sg13g2_decap_8
XFILLER_13_8 VPWR VGND sg13g2_fill_2
XFILLER_47_497 VPWR VGND sg13g2_decap_8
XFILLER_31_810 VPWR VGND sg13g2_decap_8
XFILLER_22_821 VPWR VGND sg13g2_decap_8
XFILLER_31_36 VPWR VGND sg13g2_fill_2
XFILLER_31_25 VPWR VGND sg13g2_decap_8
XFILLER_0_224 VPWR VGND sg13g2_decap_8
XFILLER_1_758 VPWR VGND sg13g2_decap_8
XFILLER_13_821 VPWR VGND sg13g2_decap_8
XFILLER_9_814 VPWR VGND sg13g2_decap_8
XFILLER_44_467 VPWR VGND sg13g2_decap_8
XFILLER_4_585 VPWR VGND sg13g2_decap_8
XFILLER_48_795 VPWR VGND sg13g2_decap_8
XFILLER_47_261 VPWR VGND sg13g2_fill_2
XFILLER_27_924 VPWR VGND sg13g2_decap_8
XFILLER_42_35 VPWR VGND sg13g2_decap_8
XFILLER_6_828 VPWR VGND sg13g2_decap_8
XFILLER_27_1022 VPWR VGND sg13g2_decap_8
XFILLER_3_18 VPWR VGND sg13g2_decap_8
XFILLER_45_798 VPWR VGND sg13g2_decap_8
XFILLER_45_721 VPWR VGND sg13g2_decap_8
XFILLER_4_393 VPWR VGND sg13g2_fill_2
XFILLER_4_382 VPWR VGND sg13g2_decap_8
XFILLER_48_592 VPWR VGND sg13g2_decap_8
XFILLER_2_308 VPWR VGND sg13g2_decap_8
XFILLER_27_765 VPWR VGND sg13g2_decap_8
XFILLER_37_35 VPWR VGND sg13g2_decap_8
X_271_ net38 VGND VPWR _008_ data\[0\] clknet_4_12_0_clk_regs sg13g2_dfrbpq_1
X_340_ net44 VGND VPWR _077_ data\[69\] clknet_4_10_0_clk_regs sg13g2_dfrbpq_1
XFILLER_42_779 VPWR VGND sg13g2_decap_8
XFILLER_5_102 VPWR VGND sg13g2_decap_8
XFILLER_49_323 VPWR VGND sg13g2_decap_8
XFILLER_18_765 VPWR VGND sg13g2_decap_8
XFILLER_45_595 VPWR VGND sg13g2_decap_8
XFILLER_33_779 VPWR VGND sg13g2_decap_8
XFILLER_24_779 VPWR VGND sg13g2_decap_8
Xclkbuf_4_10_0_clk_regs clknet_0_clk_regs clknet_4_10_0_clk_regs VPWR VGND sg13g2_buf_8
XFILLER_2_116 VPWR VGND sg13g2_decap_8
Xheichips25_internal_52 VPWR VGND uio_oe[6] sg13g2_tielo
XFILLER_3_628 VPWR VGND sg13g2_decap_8
XFILLER_48_56 VPWR VGND sg13g2_decap_8
XFILLER_47_805 VPWR VGND sg13g2_decap_8
XFILLER_46_315 VPWR VGND sg13g2_fill_2
XFILLER_15_779 VPWR VGND sg13g2_decap_8
X_185_ data\[9\] data\[10\] net21 _018_ VPWR VGND sg13g2_mux2_1
X_254_ data\[78\] data\[79\] net28 _087_ VPWR VGND sg13g2_mux2_1
X_323_ net30 VGND VPWR _060_ data\[52\] clknet_4_4_0_clk_regs sg13g2_dfrbpq_1
XFILLER_36_7 VPWR VGND sg13g2_decap_8
XFILLER_1_182 VPWR VGND sg13g2_decap_8
XFILLER_49_186 VPWR VGND sg13g2_decap_8
XFILLER_38_816 VPWR VGND sg13g2_fill_1
XFILLER_45_381 VPWR VGND sg13g2_fill_2
XFILLER_29_827 VPWR VGND sg13g2_decap_8
XFILLER_37_860 VPWR VGND sg13g2_fill_2
XFILLER_34_14 VPWR VGND sg13g2_decap_8
XFILLER_20_793 VPWR VGND sg13g2_decap_8
XFILLER_3_425 VPWR VGND sg13g2_decap_8
XFILLER_28_860 VPWR VGND sg13g2_fill_2
XFILLER_47_679 VPWR VGND sg13g2_decap_8
XFILLER_47_602 VPWR VGND sg13g2_decap_8
XFILLER_46_112 VPWR VGND sg13g2_decap_8
X_306_ net35 VGND VPWR _043_ data\[35\] clknet_4_3_0_clk_regs sg13g2_dfrbpq_1
XFILLER_11_793 VPWR VGND sg13g2_decap_8
XFILLER_7_786 VPWR VGND sg13g2_decap_8
X_168_ u_shift_reg.bit_count\[3\] u_shift_reg.bit_count\[4\] _122_ VPWR VGND sg13g2_and2_1
X_237_ data\[61\] data\[62\] net14 _070_ VPWR VGND sg13g2_mux2_1
XFILLER_1_84 VPWR VGND sg13g2_decap_8
XFILLER_46_690 VPWR VGND sg13g2_decap_8
XFILLER_34_830 VPWR VGND sg13g2_fill_1
XFILLER_29_25 VPWR VGND sg13g2_decap_4
XFILLER_44_605 VPWR VGND sg13g2_decap_8
XFILLER_25_863 VPWR VGND sg13g2_decap_8
XFILLER_45_35 VPWR VGND sg13g2_decap_8
XFILLER_40_855 VPWR VGND sg13g2_decap_8
XFILLER_40_800 VPWR VGND sg13g2_decap_8
XFILLER_6_18 VPWR VGND sg13g2_decap_8
XFILLER_3_200 VPWR VGND sg13g2_fill_2
XFILLER_4_767 VPWR VGND sg13g2_decap_8
XFILLER_47_476 VPWR VGND sg13g2_decap_8
XFILLER_22_800 VPWR VGND sg13g2_decap_8
XFILLER_31_48 VPWR VGND sg13g2_decap_8
XFILLER_0_203 VPWR VGND sg13g2_decap_8
XFILLER_1_737 VPWR VGND sg13g2_decap_8
XFILLER_13_800 VPWR VGND sg13g2_decap_8
XFILLER_48_774 VPWR VGND sg13g2_decap_8
XFILLER_47_295 VPWR VGND sg13g2_fill_1
XFILLER_27_903 VPWR VGND sg13g2_decap_8
XFILLER_10_814 VPWR VGND sg13g2_decap_8
XFILLER_42_14 VPWR VGND sg13g2_decap_8
XFILLER_6_807 VPWR VGND sg13g2_decap_8
XFILLER_5_306 VPWR VGND sg13g2_fill_2
XFILLER_1_534 VPWR VGND sg13g2_fill_1
XFILLER_27_1001 VPWR VGND sg13g2_decap_8
XFILLER_49_549 VPWR VGND sg13g2_decap_8
XFILLER_45_777 VPWR VGND sg13g2_decap_8
XFILLER_45_700 VPWR VGND sg13g2_decap_8
XFILLER_48_571 VPWR VGND sg13g2_decap_8
XFILLER_37_14 VPWR VGND sg13g2_decap_8
X_270_ net38 VGND VPWR _007_ u_shift_reg.bit_count\[6\] clknet_4_13_0_clk_regs sg13g2_dfrbpq_1
XFILLER_5_158 VPWR VGND sg13g2_fill_2
XFILLER_2_821 VPWR VGND sg13g2_decap_8
XFILLER_49_379 VPWR VGND sg13g2_decap_8
XFILLER_49_302 VPWR VGND sg13g2_decap_8
XFILLER_45_574 VPWR VGND sg13g2_decap_8
XFILLER_5_681 VPWR VGND sg13g2_decap_8
XFILLER_4_95 VPWR VGND sg13g2_decap_8
Xheichips25_internal_53 VPWR VGND uio_oe[7] sg13g2_tielo
XFILLER_3_607 VPWR VGND sg13g2_decap_8
XFILLER_48_35 VPWR VGND sg13g2_decap_8
XFILLER_9_18 VPWR VGND sg13g2_decap_8
X_322_ net30 VGND VPWR _059_ data\[51\] clknet_4_4_0_clk_regs sg13g2_dfrbpq_1
X_184_ data\[8\] data\[9\] net25 _017_ VPWR VGND sg13g2_mux2_1
X_253_ data\[78\] data\[77\] net29 _086_ VPWR VGND sg13g2_mux2_1
XFILLER_1_161 VPWR VGND sg13g2_decap_8
XFILLER_2_695 VPWR VGND sg13g2_decap_8
XFILLER_49_165 VPWR VGND sg13g2_decap_8
XFILLER_29_806 VPWR VGND sg13g2_decap_8
XFILLER_20_772 VPWR VGND sg13g2_decap_8
XFILLER_47_658 VPWR VGND sg13g2_decap_8
XFILLER_46_179 VPWR VGND sg13g2_decap_8
XFILLER_46_135 VPWR VGND sg13g2_fill_1
X_305_ net35 VGND VPWR _042_ data\[34\] clknet_4_3_0_clk_regs sg13g2_dfrbpq_1
XFILLER_11_772 VPWR VGND sg13g2_decap_8
XFILLER_7_765 VPWR VGND sg13g2_decap_8
X_167_ _121_ u_shift_reg.bit_count\[3\] _004_ VPWR VGND sg13g2_xor2_1
X_236_ data\[60\] data\[61\] net16 _069_ VPWR VGND sg13g2_mux2_1
XFILLER_1_63 VPWR VGND sg13g2_decap_8
XFILLER_45_14 VPWR VGND sg13g2_decap_8
XFILLER_25_842 VPWR VGND sg13g2_decap_8
XFILLER_4_746 VPWR VGND sg13g2_decap_8
XFILLER_3_245 VPWR VGND sg13g2_decap_8
XFILLER_47_455 VPWR VGND sg13g2_decap_4
X_219_ data\[43\] data\[44\] net17 _052_ VPWR VGND sg13g2_mux2_1
XFILLER_0_259 VPWR VGND sg13g2_fill_2
XFILLER_1_716 VPWR VGND sg13g2_decap_8
XFILLER_44_436 VPWR VGND sg13g2_fill_2
XFILLER_48_753 VPWR VGND sg13g2_decap_8
XFILLER_47_252 VPWR VGND sg13g2_fill_2
Xclkbuf_0_clk clknet_0_clk delaynet_0_clk VPWR VGND sg13g2_buf_16
XFILLER_27_959 VPWR VGND sg13g2_decap_8
XFILLER_39_786 VPWR VGND sg13g2_decap_8
XFILLER_5_318 VPWR VGND sg13g2_decap_8
XFILLER_49_528 VPWR VGND sg13g2_decap_8
XFILLER_45_756 VPWR VGND sg13g2_decap_8
XFILLER_44_277 VPWR VGND sg13g2_decap_8
XFILLER_4_351 VPWR VGND sg13g2_fill_2
XFILLER_48_550 VPWR VGND sg13g2_decap_8
XFILLER_12_18 VPWR VGND sg13g2_decap_8
XFILLER_5_137 VPWR VGND sg13g2_decap_8
XFILLER_2_800 VPWR VGND sg13g2_decap_8
XFILLER_49_358 VPWR VGND sg13g2_decap_8
XFILLER_5_660 VPWR VGND sg13g2_decap_8
XFILLER_4_74 VPWR VGND sg13g2_decap_8
XFILLER_23_28 VPWR VGND sg13g2_fill_1
Xheichips25_internal_54 VPWR VGND uo_out[0] sg13g2_tielo
XFILLER_48_14 VPWR VGND sg13g2_decap_8
X_252_ data\[76\] data\[77\] net27 _085_ VPWR VGND sg13g2_mux2_1
X_321_ net30 VGND VPWR _058_ data\[50\] clknet_4_4_0_clk_regs sg13g2_dfrbpq_1
Xfanout40 net41 net40 VPWR VGND sg13g2_buf_1
X_183_ data\[7\] data\[8\] net25 _016_ VPWR VGND sg13g2_mux2_1
XFILLER_1_140 VPWR VGND sg13g2_decap_8
XFILLER_49_144 VPWR VGND sg13g2_decap_8
XFILLER_38_807 VPWR VGND sg13g2_decap_8
XFILLER_2_674 VPWR VGND sg13g2_decap_8
XFILLER_48_0 VPWR VGND sg13g2_decap_8
XFILLER_34_49 VPWR VGND sg13g2_decap_8
XFILLER_3_405 VPWR VGND sg13g2_decap_8
XFILLER_47_637 VPWR VGND sg13g2_decap_8
XFILLER_43_843 VPWR VGND sg13g2_fill_2
XFILLER_43_821 VPWR VGND sg13g2_fill_2
X_235_ data\[59\] data\[60\] net16 _068_ VPWR VGND sg13g2_mux2_1
X_304_ net32 VGND VPWR _041_ data\[33\] clknet_4_0_0_clk_regs sg13g2_dfrbpq_1
X_166_ VGND VPWR _095_ _120_ _003_ _121_ sg13g2_a21oi_1
XFILLER_41_7 VPWR VGND sg13g2_decap_8
XFILLER_1_42 VPWR VGND sg13g2_decap_8
XFILLER_34_821 VPWR VGND sg13g2_decap_8
XFILLER_25_821 VPWR VGND sg13g2_decap_8
XFILLER_25_898 VPWR VGND sg13g2_decap_8
XFILLER_4_725 VPWR VGND sg13g2_decap_8
XFILLER_3_213 VPWR VGND sg13g2_fill_1
XFILLER_3_202 VPWR VGND sg13g2_fill_1
Xclkbuf_regs_0_clk clk_regs clk VPWR VGND sg13g2_buf_16
XFILLER_16_821 VPWR VGND sg13g2_decap_8
XFILLER_31_824 VPWR VGND sg13g2_decap_8
X_149_ net11 _108_ _109_ VPWR VGND sg13g2_nand2_1
X_218_ data\[42\] data\[43\] net17 _051_ VPWR VGND sg13g2_mux2_1
XFILLER_15_18 VPWR VGND sg13g2_decap_8
XFILLER_0_238 VPWR VGND sg13g2_decap_8
XFILLER_44_426 VPWR VGND sg13g2_fill_1
XFILLER_9_828 VPWR VGND sg13g2_decap_8
XFILLER_4_599 VPWR VGND sg13g2_decap_8
XFILLER_0_783 VPWR VGND sg13g2_decap_8
XFILLER_48_732 VPWR VGND sg13g2_decap_8
XFILLER_47_286 VPWR VGND sg13g2_decap_8
XFILLER_47_231 VPWR VGND sg13g2_fill_1
XFILLER_46_91 VPWR VGND sg13g2_decap_8
XFILLER_27_938 VPWR VGND sg13g2_decap_8
Xclkbuf_4_7_0_clk_regs clknet_0_clk_regs clknet_4_7_0_clk_regs VPWR VGND sg13g2_buf_8
XFILLER_39_765 VPWR VGND sg13g2_decap_8
XFILLER_42_49 VPWR VGND sg13g2_fill_1
XFILLER_1_569 VPWR VGND sg13g2_decap_8
XFILLER_49_507 VPWR VGND sg13g2_decap_8
XFILLER_45_735 VPWR VGND sg13g2_decap_8