*SPEF "ieee 1481-1999"
*DESIGN "adc"
*DATE "00:38:26 Sunday February 22, 2026"
*VENDOR "The OpenROAD Project"
*PROGRAM "OpenROAD"
*VERSION "dfc4f595dfb2e1c346492ff1f0274abb28725acf"
*DESIGN_FLOW "NAME_SCOPE LOCAL" "PIN_CAP NONE"
*DIVIDER /
*DELIMITER :
*BUS_DELIMITER []
*T_UNIT 1 NS
*C_UNIT 1 PF
*R_UNIT 1 OHM
*L_UNIT 1 HENRY

*NAME_MAP
*3 analog_in
*4 clk
*5 data_out[0]
*6 net9
*7 net10
*8 net
*9 net5
*10 net6
*11 net7
*12 net8
*13 ready
*14 start
*15 _00_
*16 clknet_0_clk
*17 clknet_1_0__leaf_clk
*18 clknet_1_1__leaf_clk
*19 net1
*20 net11
*21 net12
*22 net13
*23 net2
*24 net3
*25 net4
*26 FILLER_0_0
*27 FILLER_0_101
*28 FILLER_0_108
*29 FILLER_0_115
*30 FILLER_0_122
*31 FILLER_0_129
*32 FILLER_0_136
*33 FILLER_0_14
*34 FILLER_0_143
*35 FILLER_0_150
*36 FILLER_0_21
*37 FILLER_0_28
*38 FILLER_0_35
*39 FILLER_0_42
*40 FILLER_0_49
*41 FILLER_0_56
*42 FILLER_0_63
*43 FILLER_0_7
*44 FILLER_0_70
*45 FILLER_0_87
*46 FILLER_0_94
*47 FILLER_10_0
*48 FILLER_10_105
*49 FILLER_10_112
*50 FILLER_10_114
*51 FILLER_10_14
*52 FILLER_10_153
*53 FILLER_10_21
*54 FILLER_10_28
*55 FILLER_10_35
*56 FILLER_10_42
*57 FILLER_10_49
*58 FILLER_10_56
*59 FILLER_10_63
*60 FILLER_10_7
*61 FILLER_10_70
*62 FILLER_10_77
*63 FILLER_10_84
*64 FILLER_10_91
*65 FILLER_10_98
*66 FILLER_11_0
*67 FILLER_11_105
*68 FILLER_11_112
*69 FILLER_11_123
*70 FILLER_11_130
*71 FILLER_11_137
*72 FILLER_11_14
*73 FILLER_11_144
*74 FILLER_11_151
*75 FILLER_11_153
*76 FILLER_11_21
*77 FILLER_11_28
*78 FILLER_11_35
*79 FILLER_11_42
*80 FILLER_11_49
*81 FILLER_11_56
*82 FILLER_11_63
*83 FILLER_11_7
*84 FILLER_11_70
*85 FILLER_11_77
*86 FILLER_11_84
*87 FILLER_11_91
*88 FILLER_11_98
*89 FILLER_12_0
*90 FILLER_12_105
*91 FILLER_12_112
*92 FILLER_12_119
*93 FILLER_12_126
*94 FILLER_12_133
*95 FILLER_12_14
*96 FILLER_12_140
*97 FILLER_12_147
*98 FILLER_12_21
*99 FILLER_12_28
*100 FILLER_12_35
*101 FILLER_12_42
*102 FILLER_12_49
*103 FILLER_12_56
*104 FILLER_12_63
*105 FILLER_12_7
*106 FILLER_12_70
*107 FILLER_12_77
*108 FILLER_12_84
*109 FILLER_12_91
*110 FILLER_12_98
*111 FILLER_13_0
*112 FILLER_13_105
*113 FILLER_13_112
*114 FILLER_13_119
*115 FILLER_13_126
*116 FILLER_13_133
*117 FILLER_13_14
*118 FILLER_13_140
*119 FILLER_13_147
*120 FILLER_13_21
*121 FILLER_13_28
*122 FILLER_13_35
*123 FILLER_13_42
*124 FILLER_13_49
*125 FILLER_13_56
*126 FILLER_13_63
*127 FILLER_13_7
*128 FILLER_13_70
*129 FILLER_13_77
*130 FILLER_13_84
*131 FILLER_13_91
*132 FILLER_13_98
*133 FILLER_14_0
*134 FILLER_14_105
*135 FILLER_14_112
*136 FILLER_14_119
*137 FILLER_14_126
*138 FILLER_14_14
*139 FILLER_14_153
*140 FILLER_14_21
*141 FILLER_14_28
*142 FILLER_14_35
*143 FILLER_14_42
*144 FILLER_14_49
*145 FILLER_14_56
*146 FILLER_14_63
*147 FILLER_14_7
*148 FILLER_14_70
*149 FILLER_14_77
*150 FILLER_14_84
*151 FILLER_14_91
*152 FILLER_14_98
*153 FILLER_15_0
*154 FILLER_15_105
*155 FILLER_15_112
*156 FILLER_15_119
*157 FILLER_15_126
*158 FILLER_15_133
*159 FILLER_15_14
*160 FILLER_15_140
*161 FILLER_15_147
*162 FILLER_15_21
*163 FILLER_15_28
*164 FILLER_15_35
*165 FILLER_15_42
*166 FILLER_15_49
*167 FILLER_15_56
*168 FILLER_15_63
*169 FILLER_15_7
*170 FILLER_15_70
*171 FILLER_15_77
*172 FILLER_15_84
*173 FILLER_15_91
*174 FILLER_15_98
*175 FILLER_16_0
*176 FILLER_16_105
*177 FILLER_16_112
*178 FILLER_16_119
*179 FILLER_16_126
*180 FILLER_16_133
*181 FILLER_16_14
*182 FILLER_16_140
*183 FILLER_16_147
*184 FILLER_16_21
*185 FILLER_16_28
*186 FILLER_16_35
*187 FILLER_16_42
*188 FILLER_16_49
*189 FILLER_16_56
*190 FILLER_16_63
*191 FILLER_16_7
*192 FILLER_16_70
*193 FILLER_16_77
*194 FILLER_16_84
*195 FILLER_16_91
*196 FILLER_16_98
*197 FILLER_17_0
*198 FILLER_17_105
*199 FILLER_17_112
*200 FILLER_17_119
*201 FILLER_17_126
*202 FILLER_17_133
*203 FILLER_17_14
*204 FILLER_17_140
*205 FILLER_17_147
*206 FILLER_17_21
*207 FILLER_17_28
*208 FILLER_17_35
*209 FILLER_17_42
*210 FILLER_17_49
*211 FILLER_17_56
*212 FILLER_17_63
*213 FILLER_17_7
*214 FILLER_17_70
*215 FILLER_17_77
*216 FILLER_17_84
*217 FILLER_17_91
*218 FILLER_17_98
*219 FILLER_18_0
*220 FILLER_18_105
*221 FILLER_18_112
*222 FILLER_18_119
*223 FILLER_18_126
*224 FILLER_18_133
*225 FILLER_18_14
*226 FILLER_18_140
*227 FILLER_18_147
*228 FILLER_18_21
*229 FILLER_18_28
*230 FILLER_18_35
*231 FILLER_18_42
*232 FILLER_18_49
*233 FILLER_18_56
*234 FILLER_18_63
*235 FILLER_18_7
*236 FILLER_18_70
*237 FILLER_18_77
*238 FILLER_18_84
*239 FILLER_18_91
*240 FILLER_18_98
*241 FILLER_1_0
*242 FILLER_1_100
*243 FILLER_1_107
*244 FILLER_1_114
*245 FILLER_1_121
*246 FILLER_1_128
*247 FILLER_1_135
*248 FILLER_1_14
*249 FILLER_1_142
*250 FILLER_1_149
*251 FILLER_1_153
*252 FILLER_1_21
*253 FILLER_1_28
*254 FILLER_1_35
*255 FILLER_1_42
*256 FILLER_1_49
*257 FILLER_1_56
*258 FILLER_1_63
*259 FILLER_1_7
*260 FILLER_1_70
*261 FILLER_1_74
*262 FILLER_1_79
*263 FILLER_1_86
*264 FILLER_1_93
*265 FILLER_2_0
*266 FILLER_2_105
*267 FILLER_2_112
*268 FILLER_2_119
*269 FILLER_2_126
*270 FILLER_2_133
*271 FILLER_2_14
*272 FILLER_2_140
*273 FILLER_2_147
*274 FILLER_2_21
*275 FILLER_2_28
*276 FILLER_2_35
*277 FILLER_2_42
*278 FILLER_2_49
*279 FILLER_2_56
*280 FILLER_2_63
*281 FILLER_2_7
*282 FILLER_2_70
*283 FILLER_2_77
*284 FILLER_2_84
*285 FILLER_2_91
*286 FILLER_2_98
*287 FILLER_3_0
*288 FILLER_3_105
*289 FILLER_3_112
*290 FILLER_3_119
*291 FILLER_3_126
*292 FILLER_3_133
*293 FILLER_3_14
*294 FILLER_3_140
*295 FILLER_3_147
*296 FILLER_3_21
*297 FILLER_3_28
*298 FILLER_3_35
*299 FILLER_3_42
*300 FILLER_3_49
*301 FILLER_3_56
*302 FILLER_3_63
*303 FILLER_3_7
*304 FILLER_3_70
*305 FILLER_3_77
*306 FILLER_3_84
*307 FILLER_3_91
*308 FILLER_3_98
*309 FILLER_4_0
*310 FILLER_4_105
*311 FILLER_4_112
*312 FILLER_4_119
*313 FILLER_4_126
*314 FILLER_4_14
*315 FILLER_4_153
*316 FILLER_4_21
*317 FILLER_4_28
*318 FILLER_4_35
*319 FILLER_4_42
*320 FILLER_4_49
*321 FILLER_4_56
*322 FILLER_4_63
*323 FILLER_4_7
*324 FILLER_4_70
*325 FILLER_4_77
*326 FILLER_4_84
*327 FILLER_4_91
*328 FILLER_4_98
*329 FILLER_5_0
*330 FILLER_5_105
*331 FILLER_5_112
*332 FILLER_5_119
*333 FILLER_5_126
*334 FILLER_5_133
*335 FILLER_5_14
*336 FILLER_5_140
*337 FILLER_5_147
*338 FILLER_5_21
*339 FILLER_5_28
*340 FILLER_5_35
*341 FILLER_5_42
*342 FILLER_5_49
*343 FILLER_5_56
*344 FILLER_5_63
*345 FILLER_5_7
*346 FILLER_5_70
*347 FILLER_5_77
*348 FILLER_5_84
*349 FILLER_5_91
*350 FILLER_5_98
*351 FILLER_6_0
*352 FILLER_6_105
*353 FILLER_6_112
*354 FILLER_6_119
*355 FILLER_6_126
*356 FILLER_6_133
*357 FILLER_6_14
*358 FILLER_6_140
*359 FILLER_6_147
*360 FILLER_6_21
*361 FILLER_6_28
*362 FILLER_6_35
*363 FILLER_6_42
*364 FILLER_6_49
*365 FILLER_6_56
*366 FILLER_6_63
*367 FILLER_6_7
*368 FILLER_6_70
*369 FILLER_6_77
*370 FILLER_6_84
*371 FILLER_6_91
*372 FILLER_6_98
*373 FILLER_7_0
*374 FILLER_7_105
*375 FILLER_7_112
*376 FILLER_7_119
*377 FILLER_7_126
*378 FILLER_7_133
*379 FILLER_7_14
*380 FILLER_7_140
*381 FILLER_7_147
*382 FILLER_7_21
*383 FILLER_7_28
*384 FILLER_7_35
*385 FILLER_7_42
*386 FILLER_7_49
*387 FILLER_7_56
*388 FILLER_7_63
*389 FILLER_7_7
*390 FILLER_7_70
*391 FILLER_7_77
*392 FILLER_7_84
*393 FILLER_7_91
*394 FILLER_7_98
*395 FILLER_8_0
*396 FILLER_8_105
*397 FILLER_8_112
*398 FILLER_8_14
*399 FILLER_8_141
*400 FILLER_8_145
*401 FILLER_8_21
*402 FILLER_8_28
*403 FILLER_8_35
*404 FILLER_8_42
*405 FILLER_8_49
*406 FILLER_8_56
*407 FILLER_8_63
*408 FILLER_8_7
*409 FILLER_8_70
*410 FILLER_8_77
*411 FILLER_8_84
*412 FILLER_8_91
*413 FILLER_8_98
*414 FILLER_9_103
*415 FILLER_9_141
*416 FILLER_9_145
*417 FILLER_9_15
*418 FILLER_9_22
*419 FILLER_9_29
*420 FILLER_9_36
*421 FILLER_9_43
*422 FILLER_9_50
*423 FILLER_9_57
*424 FILLER_9_64
*425 FILLER_9_71
*426 FILLER_9_78
*427 FILLER_9_8
*428 FILLER_9_85
*429 FILLER_9_92
*430 FILLER_9_99
*431 _03_
*432 _04_
*433 _04__11
*434 _05_
*435 _05__12
*436 adc
*437 adc_10
*438 adc_5
*439 adc_6
*440 adc_7
*441 adc_8
*442 adc_9
*443 clkbuf_0_clk
*444 clkbuf_1_0__f_clk
*445 clkbuf_1_1__f_clk
*446 hold13
*447 input1
*448 input2
*449 output3
*450 output4

*PORTS
analog_in I
clk I
data_out[0] O
data_out[1] O
data_out[2] O
data_out[3] O
data_out[4] O
data_out[5] O
data_out[6] O
data_out[7] O
ready O
start I

*D_NET *3 0.000863566
*CONN
*P analog_in I
*I *447:A I *D sg13g2_buf_1
*CAP
1 analog_in 0.000367142
2 *447:A 0.000367142
3 *447:A *448:A 0
4 *447:A *23:8 0
5 *447:A *23:14 0.000129281
*RES
1 analog_in *447:A 44.0582 
*END

*D_NET *4 0.000824697
*CONN
*P clk I
*I *443:A I *D sg13g2_buf_16
*CAP
1 clk 0.000347834
2 *443:A 6.45144e-05
3 *4:14 0.000412348
4 *443:A *16:21 0
5 *4:14 data_out[5] 0
6 *4:14 data_out[6] 0
7 *4:14 ready 0
8 *4:14 *25:8 0
*RES
1 clk *4:14 43.6256 
2 *4:14 *443:A 40.7519 
*END

*D_NET *5 0.000644642
*CONN
*P data_out[0] O
*I *449:X O *D sg13g2_buf_1
*CAP
1 data_out[0] 0.000322321
2 *449:X 0.000322321
3 data_out[0] data_out[6] 0
4 data_out[0] *449:A 0
*RES
1 *449:X data_out[0] 43.4711 
*END

*D_NET *6 0.00053485
*CONN
*P data_out[1] O
*I *442:L_LO O *D sg13g2_tielo
*CAP
1 data_out[1] 0.000267425
2 *442:L_LO 0.000267425
3 data_out[1] data_out[3] 0
*RES
1 *442:L_LO data_out[1] 22.678 
*END

*D_NET *7 0.00106464
*CONN
*P data_out[2] O
*I *437:L_LO O *D sg13g2_tielo
*CAP
1 data_out[2] 0.00053232
2 *437:L_LO 0.00053232
3 data_out[2] data_out[7] 0
*RES
1 *437:L_LO data_out[2] 25.7062 
*END

*D_NET *8 0.000615453
*CONN
*P data_out[3] O
*I *436:L_LO O *D sg13g2_tielo
*CAP
1 data_out[3] 0.000307727
2 *436:L_LO 0.000307727
3 data_out[3] data_out[4] 0
4 data_out[1] data_out[3] 0
*RES
1 *436:L_LO data_out[3] 22.678 
*END

*D_NET *9 0.000618134
*CONN
*P data_out[4] O
*I *438:L_LO O *D sg13g2_tielo
*CAP
1 data_out[4] 0.000309067
2 *438:L_LO 0.000309067
3 data_out[4] data_out[7] 0
4 data_out[3] data_out[4] 0
*RES
1 *438:L_LO data_out[4] 22.678 
*END

*D_NET *10 0.000916952
*CONN
*P data_out[5] O
*I *439:L_LO O *D sg13g2_tielo
*CAP
1 data_out[5] 0.000458476
2 *439:L_LO 0.000458476
3 data_out[5] data_out[6] 0
4 data_out[5] ready 0
5 data_out[5] *16:21 0
6 *4:14 data_out[5] 0
*RES
1 *439:L_LO data_out[5] 44.1097 
*END

*D_NET *11 0.000949804
*CONN
*P data_out[6] O
*I *440:L_LO O *D sg13g2_tielo
*CAP
1 data_out[6] 0.000474902
2 *440:L_LO 0.000474902
3 data_out[6] *16:21 0
4 data_out[6] *25:8 0
5 data_out[0] data_out[6] 0
6 data_out[5] data_out[6] 0
7 *4:14 data_out[6] 0
*RES
1 *440:L_LO data_out[6] 44.3363 
*END

*D_NET *12 0.000723071
*CONN
*P data_out[7] O
*I *441:L_LO O *D sg13g2_tielo
*CAP
1 data_out[7] 0.000282681
2 *441:L_LO 7.88542e-05
3 *12:8 0.000361535
4 data_out[2] data_out[7] 0
5 data_out[4] data_out[7] 0
*RES
1 *441:L_LO *12:8 40.8446 
2 *12:8 data_out[7] 22.3278 
*END

*D_NET *13 0.000366874
*CONN
*P ready O
*I *450:X O *D sg13g2_buf_1
*CAP
1 ready 0.000183437
2 *450:X 0.000183437
3 data_out[5] ready 0
4 *4:14 ready 0
*RES
1 *450:X ready 41.8437 
*END

*D_NET *14 0.000383632
*CONN
*P start I
*I *448:A I *D sg13g2_buf_1
*CAP
1 start 0.000191816
2 *448:A 0.000191816
3 *447:A *448:A 0
*RES
1 start *448:A 41.9982 
*END

*D_NET *15 0.000406835
*CONN
*I *432:D I *D sg13g2_dfrbpq_1
*I *431:X O *D sg13g2_mux2_1
*CAP
1 *432:D 0.000203418
2 *431:X 0.000203418
3 *432:D *432:RESET_B 0
*RES
1 *431:X *432:D 42.3175 
*END

*D_NET *16 0.00484586
*CONN
*I *445:A I *D sg13g2_buf_16
*I *444:A I *D sg13g2_buf_16
*I *443:X O *D sg13g2_buf_16
*CAP
1 *445:A 8.5995e-05
2 *444:A 7.85907e-05
3 *443:X 0.000117836
4 *16:37 0.000672433
5 *16:21 0.00137305
6 *16:13 0.00214051
7 *16:8 0.000377449
8 *16:8 *434:CLK 0
9 *16:21 *449:A 0
10 data_out[5] *16:21 0
11 data_out[6] *16:21 0
12 *443:A *16:21 0
*RES
1 *443:X *16:8 41.1845 
2 *16:8 *16:13 2.8222 
3 *16:13 *16:21 33.4106 
4 *16:21 *444:A 20.9682 
5 *16:13 *16:37 26.5714 
6 *16:37 *445:A 20.9682 
*END

*D_NET *17 0.00143964
*CONN
*I *432:CLK I *D sg13g2_dfrbpq_1
*I *444:X O *D sg13g2_buf_16
*CAP
1 *432:CLK 0.00071982
2 *444:X 0.00071982
3 *432:CLK *432:RESET_B 0
*RES
1 *444:X *432:CLK 48.2709 
*END

*D_NET *18 0.00180432
*CONN
*I *434:CLK I *D sg13g2_dfrbpq_1
*I *445:X O *D sg13g2_buf_16
*CAP
1 *434:CLK 0.000902159
2 *445:X 0.000902159
3 *434:CLK *434:RESET_B 0
4 *434:CLK *446:A 0
5 *16:8 *434:CLK 0
*RES
1 *445:X *434:CLK 49.888 
*END

*D_NET *19 0.00861665
*CONN
*I *431:A1 I *D sg13g2_mux2_1
*I *447:X O *D sg13g2_buf_1
*CAP
1 *431:A1 0
2 *447:X 0
3 *19:12 0.00162334
4 *19:6 0.00162334
5 *19:12 *431:A0 1.54008e-05
6 *19:12 *432:RESET_B 0
7 *19:12 *23:14 0.00535456
8 *19:12 *23:20 0
*RES
1 *447:X *19:6 40 
2 *19:6 *19:12 45.8501 
3 *19:12 *431:A1 20 
*END

*D_NET *20 0.00118316
*CONN
*I *432:RESET_B I *D sg13g2_dfrbpq_1
*I *433:L_HI O *D sg13g2_tiehi
*CAP
1 *432:RESET_B 0.00042183
2 *433:L_HI 0.00042183
3 *432:RESET_B *431:A0 0
4 *432:RESET_B *434:RESET_B 0.000339496
5 *432:RESET_B *446:A 0
6 *432:D *432:RESET_B 0
7 *432:CLK *432:RESET_B 0
8 *19:12 *432:RESET_B 0
*RES
1 *433:L_HI *432:RESET_B 44.8822 
*END

*D_NET *21 0.00102351
*CONN
*I *434:RESET_B I *D sg13g2_dfrbpq_1
*I *435:L_HI O *D sg13g2_tiehi
*CAP
1 *434:RESET_B 0.000342009
2 *435:L_HI 0.000342009
3 *434:RESET_B *446:A 0
4 *432:RESET_B *434:RESET_B 0.000339496
5 *434:CLK *434:RESET_B 0
*RES
1 *435:L_HI *434:RESET_B 43.914 
*END

*D_NET *22 0.000866288
*CONN
*I *431:A0 I *D sg13g2_mux2_1
*I *446:X O *D sg13g2_dlygate4sd3_1
*CAP
1 *431:A0 0.000174526
2 *446:X 0.000250918
3 *22:8 0.000425444
4 *22:8 *23:20 0
5 *432:RESET_B *431:A0 0
6 *19:12 *431:A0 1.54008e-05
*RES
1 *446:X *22:8 42.8222 
2 *22:8 *431:A0 41.8334 
*END

*D_NET *23 0.009304
*CONN
*I *431:S I *D sg13g2_mux2_1
*I *434:D I *D sg13g2_dfrbpq_1
*I *448:X O *D sg13g2_buf_1
*CAP
1 *431:S 0
2 *434:D 0
3 *448:X 2.51935e-05
4 *23:20 0.000203862
5 *23:14 0.00188488
6 *23:8 0.00170621
7 *447:A *23:8 0
8 *447:A *23:14 0.000129281
9 *19:12 *23:14 0.00535456
10 *19:12 *23:20 0
11 *22:8 *23:20 0
*RES
1 *448:X *23:8 40.3193 
2 *23:8 *23:14 46.5328 
3 *23:14 *23:20 42.3278 
4 *23:20 *434:D 20 
5 *23:14 *431:S 20 
*END

*D_NET *24 0.00166896
*CONN
*I *449:A I *D sg13g2_buf_1
*I *446:A I *D sg13g2_dlygate4sd3_1
*I *432:Q O *D sg13g2_dfrbpq_1
*CAP
1 *449:A 0.000192528
2 *446:A 0.000641954
3 *432:Q 0
4 *24:6 0.000834482
5 *446:A *25:8 0
6 *449:A *25:8 0
7 data_out[0] *449:A 0
8 *432:RESET_B *446:A 0
9 *434:RESET_B *446:A 0
10 *434:CLK *446:A 0
11 *16:21 *449:A 0
*RES
1 *432:Q *24:6 40 
2 *24:6 *446:A 46.6641 
3 *24:6 *449:A 42.472 
*END

*D_NET *25 0.000483704
*CONN
*I *450:A I *D sg13g2_buf_1
*I *434:Q O *D sg13g2_dfrbpq_1
*CAP
1 *450:A 0
2 *434:Q 0.000241852
3 *25:8 0.000241852
4 data_out[6] *25:8 0
5 *446:A *25:8 0
6 *449:A *25:8 0
7 *4:14 *25:8 0
*RES
1 *434:Q *25:8 42.8222 
2 *25:8 *450:A 40 
*END
