*SPEF "ieee 1481-1999"
*DESIGN "delay_line"
*DATE "01:05:06 Monday February 23, 2026"
*VENDOR "The OpenROAD Project"
*PROGRAM "OpenROAD"
*VERSION "dfc4f595dfb2e1c346492ff1f0274abb28725acf"
*DESIGN_FLOW "NAME_SCOPE LOCAL" "PIN_CAP NONE"
*DIVIDER /
*DELIMITER :
*BUS_DELIMITER []
*T_UNIT 1 NS
*C_UNIT 1 PF
*R_UNIT 1 OHM
*L_UNIT 1 HENRY

*NAME_MAP
*3 clk
*4 clk_delayed
*5 reset
*6 sel[0]
*7 sel[1]
*8 sel[2]
*9 trim[0]
*10 trim[1]
*11 trim[2]
*12 trim[3]
*13 trim[4]
*14 trim[5]
*15 trim[6]
*16 trim[7]
*17 _0_
*18 _1_
*19 clknet_0_dstage\[0\]\.id\.delaybuf0\.A
*20 clknet_0_dstage\[0\]\.id\.delaybuf0\.X
*21 clknet_0_dstage\[0\]\.id\.delayen0\.Z
*22 clknet_0_dstage\[0\]\.id\.delayen0\.Z_regs
*23 clknet_0_dstage\[1\]\.id\.delaybuf0\.X
*24 clknet_0_dstage\[1\]\.id\.delayen0\.Z
*25 clknet_0_dstage\[2\]\.id\.delaybuf0\.X
*26 clknet_0_dstage\[2\]\.id\.delayen0\.Z
*27 clknet_0_dstage\[2\]\.id\.delayen0\.Z_regs
*28 clknet_0_dstage\[3\]\.id\.delaybuf0\.X
*29 clknet_1_0__leaf_dstage\[0\]\.id\.delaybuf0\.A
*30 clknet_1_0__leaf_dstage\[0\]\.id\.delaybuf0\.X
*31 clknet_1_0__leaf_dstage\[0\]\.id\.delayen0\.Z
*32 clknet_1_0__leaf_dstage\[0\]\.id\.delayen0\.Z_regs
*33 clknet_1_0__leaf_dstage\[1\]\.id\.delaybuf0\.X
*34 clknet_1_0__leaf_dstage\[1\]\.id\.delayen0\.Z
*35 clknet_1_0__leaf_dstage\[2\]\.id\.delaybuf0\.X
*36 clknet_1_0__leaf_dstage\[2\]\.id\.delayen0\.Z
*37 clknet_1_0__leaf_dstage\[2\]\.id\.delayen0\.Z_regs
*38 clknet_1_0__leaf_dstage\[3\]\.id\.delaybuf0\.X
*39 clknet_1_1__leaf_dstage\[0\]\.id\.delaybuf0\.A
*40 clknet_1_1__leaf_dstage\[0\]\.id\.delaybuf0\.X
*41 clknet_1_1__leaf_dstage\[1\]\.id\.delaybuf0\.X
*42 clknet_1_1__leaf_dstage\[1\]\.id\.delayen0\.Z
*43 clknet_1_1__leaf_dstage\[2\]\.id\.delaybuf0\.X
*44 clknet_1_1__leaf_dstage\[3\]\.id\.delaybuf0\.X
*45 dstage\[0\]\.id\.d0
*46 dstage\[0\]\.id\.d1
*47 dstage\[0\]\.id\.delaybuf0\.A
*48 dstage\[0\]\.id\.delaybuf0\.X
*49 dstage\[0\]\.id\.delayen0\.Z
*50 dstage\[0\]\.id\.delayen0\.Z_regs
*51 dstage\[0\]\.id\.delayen0\.te_b
*52 dstage\[0\]\.id\.delayen1\.te_b
*53 dstage\[1\]\.id\.d0
*54 dstage\[1\]\.id\.d1
*55 dstage\[1\]\.id\.delaybuf0\.X
*56 dstage\[1\]\.id\.delayen0\.Z
*57 dstage\[1\]\.id\.delayen0\.te_b
*58 dstage\[1\]\.id\.delayen1\.te_b
*59 dstage\[2\]\.id\.d0
*60 dstage\[2\]\.id\.d1
*61 dstage\[2\]\.id\.delaybuf0\.X
*62 dstage\[2\]\.id\.delayen0\.Z
*63 dstage\[2\]\.id\.delayen0\.Z_regs
*64 dstage\[2\]\.id\.delayen0\.te_b
*65 dstage\[2\]\.id\.delayen1\.te_b
*66 dstage\[3\]\.id\.d0
*67 dstage\[3\]\.id\.d1
*68 dstage\[3\]\.id\.delaybuf0\.X
*69 dstage\[3\]\.id\.delayen0\.Z
*70 dstage\[3\]\.id\.delayen0\.te_b
*71 dstage\[3\]\.id\.delayen1\.te_b
*72 net1
*73 net10
*74 net11
*75 net12
*76 net13
*77 net14
*78 net15
*79 net16
*80 net17
*81 net18
*82 net2
*83 net3
*84 net4
*85 net5
*86 net6
*87 net7
*88 net8
*89 net9
*90 phase_taps\[0\]\.genblk1\.ibuf_tap_even\.X
*91 phase_taps\[2\]\.genblk1\.ibuf_tap_even\.X
*92 phase_taps\[4\]\.genblk1\.ibuf_tap_even\.X
*93 u_delay_mux\.clk_pre
*94 u_delay_mux\.gen_clockp_bufs\[0\]\.u_one_hot_tribuf\.TE_B
*95 u_delay_mux\.gen_clockp_bufs\[1\]\.u_one_hot_tribuf\.TE_B
*96 u_delay_mux\.gen_clockp_bufs\[2\]\.u_one_hot_tribuf\.TE_B
*97 u_delay_mux\.gen_clockp_bufs\[3\]\.u_one_hot_tribuf\.TE_B
*98 u_delay_mux\.gen_clockp_bufs\[4\]\.u_one_hot_tribuf\.TE_B
*99 FILLER_0_0
*100 FILLER_0_35
*101 FILLER_0_40
*102 FILLER_0_7
*103 FILLER_0_70
*104 FILLER_10_11
*105 FILLER_10_15
*106 FILLER_10_4
*107 FILLER_11_0
*108 FILLER_11_14
*109 FILLER_11_50
*110 FILLER_11_7
*111 FILLER_11_82
*112 FILLER_12_0
*113 FILLER_12_4
*114 FILLER_1_0
*115 FILLER_1_11
*116 FILLER_1_112
*117 FILLER_1_7
*118 FILLER_1_97
*119 FILLER_2_0
*120 FILLER_2_11
*121 FILLER_2_111
*122 FILLER_2_7
*123 FILLER_3_0
*124 FILLER_3_30
*125 FILLER_4_108
*126 FILLER_4_11
*127 FILLER_4_4
*128 FILLER_4_68
*129 FILLER_5_25
*130 FILLER_5_27
*131 FILLER_5_53
*132 FILLER_6_0
*133 FILLER_6_112
*134 FILLER_6_14
*135 FILLER_6_7
*136 FILLER_7_19
*137 FILLER_7_4
*138 FILLER_7_8
*139 FILLER_8_11
*140 FILLER_8_18
*141 FILLER_8_4
*142 FILLER_9_50
*143 FILLER_9_76
*144 _2_
*145 _3_
*146 _4_
*147 _5_
*148 _6_
*149 _7_
*150 _8_
*151 clkbuf_0_dstage\[0\]\.id\.delaybuf0\.A
*152 clkbuf_0_dstage\[0\]\.id\.delaybuf0\.X
*153 clkbuf_0_dstage\[0\]\.id\.delayen0\.Z
*154 clkbuf_0_dstage\[0\]\.id\.delayen0\.Z_regs
*155 clkbuf_0_dstage\[1\]\.id\.delaybuf0\.X
*156 clkbuf_0_dstage\[1\]\.id\.delayen0\.Z
*157 clkbuf_0_dstage\[2\]\.id\.delaybuf0\.X
*158 clkbuf_0_dstage\[2\]\.id\.delayen0\.Z
*159 clkbuf_0_dstage\[2\]\.id\.delayen0\.Z_regs
*160 clkbuf_0_dstage\[3\]\.id\.delaybuf0\.X
*161 clkbuf_1_0__f_dstage\[0\]\.id\.delaybuf0\.A
*162 clkbuf_1_0__f_dstage\[0\]\.id\.delaybuf0\.X
*163 clkbuf_1_0__f_dstage\[0\]\.id\.delayen0\.Z
*164 clkbuf_1_0__f_dstage\[0\]\.id\.delayen0\.Z_regs
*165 clkbuf_1_0__f_dstage\[1\]\.id\.delaybuf0\.X
*166 clkbuf_1_0__f_dstage\[1\]\.id\.delayen0\.Z
*167 clkbuf_1_0__f_dstage\[2\]\.id\.delaybuf0\.X
*168 clkbuf_1_0__f_dstage\[2\]\.id\.delayen0\.Z
*169 clkbuf_1_0__f_dstage\[2\]\.id\.delayen0\.Z_regs
*170 clkbuf_1_0__f_dstage\[3\]\.id\.delaybuf0\.X
*171 clkbuf_1_1__f_dstage\[0\]\.id\.delaybuf0\.A
*172 clkbuf_1_1__f_dstage\[0\]\.id\.delaybuf0\.X
*173 clkbuf_1_1__f_dstage\[1\]\.id\.delaybuf0\.X
*174 clkbuf_1_1__f_dstage\[1\]\.id\.delayen0\.Z
*175 clkbuf_1_1__f_dstage\[2\]\.id\.delaybuf0\.X
*176 clkbuf_1_1__f_dstage\[3\]\.id\.delaybuf0\.X
*177 clkbuf_regs_0_clk
*178 clkbuf_regs_1_clk
*179 clkload0
*180 clkload1
*181 clkload2
*182 clkload3
*183 clkload4
*184 clkload5
*185 dstage\[0\]\.id\.delaybuf0\.u_buf
*186 dstage\[0\]\.id\.delaybuf1\.u_buf
*187 dstage\[0\]\.id\.delayen0\.u_einv
*188 dstage\[0\]\.id\.delayen0\.u_inv_te
*189 dstage\[0\]\.id\.delayen1\.u_einv
*190 dstage\[0\]\.id\.delayen1\.u_inv_te
*191 dstage\[0\]\.id\.delayenb0\.u_einv
*192 dstage\[0\]\.id\.delayenb1\.u_einv
*193 dstage\[0\]\.id\.delayint0\.u_inv_13
*194 dstage\[1\]\.id\.delaybuf0\.u_buf
*195 dstage\[1\]\.id\.delaybuf1\.u_buf
*196 dstage\[1\]\.id\.delayen0\.u_einv
*197 dstage\[1\]\.id\.delayen0\.u_inv_te
*198 dstage\[1\]\.id\.delayen1\.u_einv
*199 dstage\[1\]\.id\.delayen1\.u_inv_te
*200 dstage\[1\]\.id\.delayenb0\.u_einv
*201 dstage\[1\]\.id\.delayenb1\.u_einv
*202 dstage\[1\]\.id\.delayint0\.u_inv_15
*203 dstage\[2\]\.id\.delaybuf0\.u_buf
*204 dstage\[2\]\.id\.delaybuf1\.u_buf
*205 dstage\[2\]\.id\.delayen0\.u_einv
*206 dstage\[2\]\.id\.delayen0\.u_inv_te
*207 dstage\[2\]\.id\.delayen1\.u_einv
*208 dstage\[2\]\.id\.delayen1\.u_inv_te
*209 dstage\[2\]\.id\.delayenb0\.u_einv
*210 dstage\[2\]\.id\.delayenb1\.u_einv
*211 dstage\[2\]\.id\.delayint0\.u_inv_16
*212 dstage\[3\]\.id\.delaybuf0\.u_buf
*213 dstage\[3\]\.id\.delaybuf1\.u_buf
*214 dstage\[3\]\.id\.delayen0\.u_einv
*215 dstage\[3\]\.id\.delayen0\.u_inv_te
*216 dstage\[3\]\.id\.delayen1\.u_einv
*217 dstage\[3\]\.id\.delayen1\.u_inv_te
*218 dstage\[3\]\.id\.delayenb0\.u_einv
*219 dstage\[3\]\.id\.delayenb1\.u_einv
*220 dstage\[3\]\.id\.delayint0\.u_inv_18
*221 input1
*222 input10
*223 input11
*224 input2
*225 input3
*226 input4
*227 input5
*228 input6
*229 input7
*230 input8
*231 input9
*232 output12
*233 phase_taps\[0\]\.genblk1\.ibuf_tap_even\.u_buf
*234 phase_taps\[1\]\.genblk1\.iinv_tap_odd\.u_inv_14
*235 phase_taps\[2\]\.genblk1\.ibuf_tap_even\.u_buf
*236 phase_taps\[3\]\.genblk1\.iinv_tap_odd\.u_inv_17
*237 phase_taps\[4\]\.genblk1\.ibuf_tap_even\.u_buf
*238 u_delay_mux\.gen_clockp_bufs\[0\]\.u_one_hot_tribuf\.u_ebuf
*239 u_delay_mux\.gen_clockp_bufs\[1\]\.u_one_hot_tribuf\.u_ebuf
*240 u_delay_mux\.gen_clockp_bufs\[2\]\.u_one_hot_tribuf\.u_ebuf
*241 u_delay_mux\.gen_clockp_bufs\[3\]\.u_one_hot_tribuf\.u_ebuf
*242 u_delay_mux\.gen_clockp_bufs\[4\]\.u_one_hot_tribuf\.u_ebuf
*243 u_delay_mux\.u_clkbuf\.u_buf
*244 u_inbuf\.u_buf

*PORTS
clk I
clk_delayed O
reset I
sel[0] I
sel[1] I
sel[2] I
trim[0] I
trim[1] I
trim[2] I
trim[3] I
trim[4] I
trim[5] I
trim[6] I
trim[7] I

*D_NET *3 0.00555118
*CONN
*P clk I
*I *244:A I *D sg13g2_buf_2
*CAP
1 clk 0.00131196
2 *244:A 0.000158688
3 *3:9 0.00147065
4 *244:A *230:A 0.00024149
5 *244:A *47:8 0
6 *3:9 *172:A 0
7 *3:9 *9:9 0
8 *3:9 *13:9 0
9 *3:9 *19:11 0
10 *3:9 *19:29 0
11 *3:9 *20:39 0
12 *3:9 *84:12 0.0023684
*RES
1 clk *3:9 35.8723 
2 *3:9 *244:A 41.6171 
*END

*D_NET *4 0.000662902
*CONN
*P clk_delayed O
*I *232:X O *D sg13g2_buf_1
*CAP
1 clk_delayed 0.000258958
2 *232:X 0.000258958
3 clk_delayed *232:A 0.000144985
*RES
1 *232:X clk_delayed 43.0797 
*END

*D_NET *6 0.00289999
*CONN
*P sel[0] I
*I *221:A I *D sg13g2_buf_1
*CAP
1 sel[0] 0.00108555
2 *221:A 0.00036445
3 *6:9 0.00145
4 *221:A *185:A 0
5 *221:A *39:29 0
6 *6:9 *19:11 0
7 *6:9 *29:8 0
8 *6:9 *39:12 0
*RES
1 sel[0] *6:9 32.1334 
2 *6:9 *221:A 43.6977 
*END

*D_NET *7 0.000748444
*CONN
*P sel[1] I
*I *224:A I *D sg13g2_buf_1
*CAP
1 sel[1] 0.000374222
2 *224:A 0.000374222
3 *224:A *225:A 0
4 *224:A *82:10 0
*RES
1 sel[1] *224:A 43.8316 
*END

*D_NET *8 0.000389576
*CONN
*P sel[2] I
*I *225:A I *D sg13g2_buf_1
*CAP
1 sel[2] 0.000194788
2 *225:A 0.000194788
3 *224:A *225:A 0
*RES
1 sel[2] *225:A 41.9982 
*END

*D_NET *9 0.00264581
*CONN
*P trim[0] I
*I *226:A I *D sg13g2_buf_1
*CAP
1 trim[0] 0.00107967
2 *226:A 0.000243234
3 *9:9 0.0013229
4 *226:A *230:A 0
5 *9:9 *13:9 0
6 *9:9 *20:39 0
7 *3:9 *9:9 0
*RES
1 trim[0] *9:9 33.0913 
2 *9:9 *226:A 42.6986 
*END

*D_NET *10 0.00164422
*CONN
*P trim[1] I
*I *227:A I *D sg13g2_buf_1
*CAP
1 trim[1] 0.000822112
2 *227:A 0.000822112
3 *227:A *24:13 0
4 *227:A *24:41 0
*RES
1 trim[1] *227:A 49.4142 
*END

*D_NET *11 0.000729414
*CONN
*P trim[2] I
*I *228:A I *D sg13g2_buf_1
*CAP
1 trim[2] 0.000364707
2 *228:A 0.000364707
3 *228:A *170:A 0
4 *228:A *213:A 0
*RES
1 trim[2] *228:A 24.3569 
*END

*D_NET *12 0.000614667
*CONN
*P trim[3] I
*I *229:A I *D sg13g2_buf_1
*CAP
1 trim[3] 0.000307333
2 *229:A 0.000307333
3 *229:A *87:6 0
*RES
1 trim[3] *229:A 43.296 
*END

*D_NET *13 0.00374122
*CONN
*P trim[4] I
*I *230:A I *D sg13g2_buf_1
*CAP
1 trim[4] 0.0012355
2 *230:A 0.000514369
3 *13:9 0.00174986
4 *230:A *20:39 0
5 *230:A *39:8 0
6 *13:9 *20:39 0
7 *226:A *230:A 0
8 *244:A *230:A 0.00024149
9 *3:9 *13:9 0
10 *9:9 *13:9 0
*RES
1 trim[4] *13:9 32.8441 
2 *13:9 *230:A 45.2118 
*END

*D_NET *14 0.0016472
*CONN
*P trim[5] I
*I *231:A I *D sg13g2_buf_1
*CAP
1 trim[5] 0.000823601
2 *231:A 0.000823601
3 *231:A *163:A 0
4 *231:A *198:A 0
5 *231:A *21:8 0
6 *231:A *21:13 0
7 *231:A *89:14 0
*RES
1 trim[5] *231:A 48.5902 
*END

*D_NET *15 0.00223838
*CONN
*P trim[6] I
*I *222:A I *D sg13g2_buf_1
*CAP
1 trim[6] 0.000764074
2 *222:A 0
3 *15:13 0.000764074
4 *15:13 *203:A 0
5 *15:13 *209:A 0.000305993
6 *15:13 *59:14 0.000404239
*RES
1 trim[6] *15:13 48.5593 
2 *15:13 *222:A 20 
*END

*D_NET *16 0.000721554
*CONN
*P trim[7] I
*I *223:A I *D sg13g2_buf_1
*CAP
1 trim[7] 0.000360777
2 *223:A 0
3 *16:13 0.000360777
4 *16:13 *184:A 0
*RES
1 trim[7] *16:13 44.1715 
2 *16:13 *223:A 20 
*END

*D_NET *17 0.00174298
*CONN
*I *147:B I *D sg13g2_nand2_1
*I *146:B I *D sg13g2_nand2b_1
*I *145:Y O *D sg13g2_nor2_1
*CAP
1 *147:B 0
2 *146:B 0
3 *145:Y 0.000295645
4 *17:22 6.96065e-05
5 *17:16 0.000218379
6 *17:12 0.000444417
7 *17:12 *149:B 0
8 *17:12 *199:A 0.00038363
9 *17:12 *18:8 0
10 *17:12 *72:10 0
11 *17:12 *83:40 7.57164e-05
12 *17:12 *96:8 0.00012773
13 *17:22 *146:A_N 0.000127853
14 *17:22 *51:8 0
15 *17:22 *93:42 0
*RES
1 *145:Y *17:12 43.9861 
2 *17:12 *17:16 20.9997 
3 *17:16 *17:22 40.8446 
4 *17:22 *146:B 20 
5 *17:16 *147:B 20 
*END

*D_NET *18 0.000876848
*CONN
*I *149:B I *D sg13g2_nand2b_1
*I *150:B I *D sg13g2_nand2_1
*I *148:Y O *D sg13g2_nor2b_1
*CAP
1 *149:B 0.00016416
2 *150:B 3.99509e-05
3 *148:Y 0.000194199
4 *18:8 0.000398311
5 *149:B *58:20 0
6 *149:B *72:14 0
7 *150:B *58:10 8.02269e-05
8 *150:B *72:14 0
9 *18:8 *145:A 0
10 *18:8 *83:40 0
11 *17:12 *149:B 0
12 *17:12 *18:8 0
*RES
1 *148:Y *18:8 42.0806 
2 *18:8 *150:B 40.5356 
3 *18:8 *149:B 41.8746 
*END

*D_NET *19 0.00476815
*CONN
*I *171:A I *D sg13g2_buf_16
*I *161:A I *D sg13g2_buf_16
*I *151:X O *D sg13g2_buf_16
*CAP
1 *171:A 0.000149098
2 *161:A 3.38493e-05
3 *151:X 0
4 *19:29 0.00145633
5 *19:11 0.000927745
6 *19:6 0.00220113
7 *171:A *174:A 0
8 *171:A *20:17 0
9 *171:A *24:21 0
10 *19:11 *20:39 0
11 *19:11 *39:12 0
12 *19:11 *84:12 0
13 *19:29 *164:A 0
14 *19:29 *174:A 0
15 *19:29 *20:8 0
16 *19:29 *20:17 0
17 *19:29 *20:30 0
18 *19:29 *20:39 0
19 *19:29 *22:15 0
20 *19:29 *52:12 0
21 *3:9 *19:11 0
22 *3:9 *19:29 0
23 *6:9 *19:11 0
*RES
1 *151:X *19:6 40 
2 *19:6 *19:11 8.755 
3 *19:11 *161:A 40.3193 
4 *19:6 *19:29 31.1446 
5 *19:29 *171:A 21.5347 
*END

*D_NET *20 0.00623966
*CONN
*I *172:A I *D sg13g2_buf_16
*I *162:A I *D sg13g2_buf_16
*I *152:X O *D sg13g2_buf_16
*CAP
1 *172:A 7.99764e-05
2 *162:A 8.40681e-05
3 *152:X 7.23936e-05
4 *20:39 0.00143031
5 *20:30 0.00146051
6 *20:17 0.00131919
7 *20:8 0.00142288
8 *20:6 0.000370328
9 *162:A *33:27 0
10 *162:A *55:15 0
11 *20:8 *39:8 0
12 *20:17 *189:A 0
13 *20:17 *23:11 0
14 *20:17 *24:21 0
15 *20:17 *30:10 0
16 *20:17 *39:8 0
17 *20:17 *52:12 0
18 *20:17 *58:20 0
19 *20:30 *39:8 0
20 *171:A *20:17 0
21 *230:A *20:39 0
22 *3:9 *172:A 0
23 *3:9 *20:39 0
24 *9:9 *20:39 0
25 *13:9 *20:39 0
26 *19:11 *20:39 0
27 *19:29 *20:8 0
28 *19:29 *20:17 0
29 *19:29 *20:30 0
30 *19:29 *20:39 0
*RES
1 *152:X *20:6 20.8446 
2 *20:6 *20:8 2.0497 
3 *20:8 *20:17 31.4536 
4 *20:17 *162:A 40.7519 
5 *20:6 *20:30 0.9682 
6 *20:30 *20:39 31.6699 
7 *20:39 *172:A 40.7519 
*END

*D_NET *21 0.00143936
*CONN
*I *163:A I *D sg13g2_buf_16
*I *153:X O *D sg13g2_buf_16
*CAP
1 *163:A 0.00017919
2 *153:X 0.000141903
3 *21:13 0.000577774
4 *21:8 0.000540488
5 *163:A *89:14 0
6 *21:8 *189:A 0
7 *21:8 *195:A 0
8 *21:13 *195:A 0
9 *21:13 *89:14 0
10 *231:A *163:A 0
11 *231:A *21:8 0
12 *231:A *21:13 0
*RES
1 *153:X *21:8 21.4575 
2 *21:8 *21:13 3.45565 
3 *21:13 *163:A 21.7819 
*END

*D_NET *22 0.00166858
*CONN
*I *164:A I *D sg13g2_buf_16
*I *154:X O *D sg13g2_buf_16
*CAP
1 *164:A 0.000105843
2 *154:X 0
3 *22:15 0.00083429
4 *22:6 0.000728447
5 *22:15 *151:A 0
6 *22:15 *174:A 0
7 *22:15 *180:A 0
8 *22:15 *24:21 0
9 *22:15 *40:14 0
10 *22:15 *46:8 0
11 *22:15 *47:17 0
12 *19:29 *164:A 0
13 *19:29 *22:15 0
*RES
1 *154:X *22:6 40 
2 *22:6 *22:15 27.7456 
3 *22:15 *164:A 20.9682 
*END

*D_NET *23 0.001446
*CONN
*I *173:A I *D sg13g2_buf_16
*I *165:A I *D sg13g2_buf_16
*I *155:X O *D sg13g2_buf_16
*CAP
1 *173:A 0.000236091
2 *165:A 0
3 *155:X 0
4 *23:15 0.000236091
5 *23:11 0.00048691
6 *23:6 0.00048691
7 *173:A *24:21 0
8 *23:11 *58:20 0
9 *23:11 *89:16 0
10 *20:17 *23:11 0
*RES
1 *155:X *23:6 40 
2 *23:6 *23:11 5.047 
3 *23:11 *23:15 20 
4 *23:15 *165:A 20 
5 *23:15 *173:A 21.9364 
*END

*D_NET *24 0.00531857
*CONN
*I *166:A I *D sg13g2_buf_16
*I *174:A I *D sg13g2_buf_16
*I *156:X O *D sg13g2_buf_16
*CAP
1 *166:A 0.000118349
2 *174:A 0.000129844
3 *156:X 6.32666e-05
4 *24:41 0.000962244
5 *24:21 0.00130757
6 *24:13 0.00234782
7 *24:8 0.000389466
8 *166:A *207:Z 0
9 *24:21 *155:A 0
10 *24:21 *181:A 0
11 *24:21 *55:10 0
12 *24:21 *55:15 0
13 *24:21 *58:20 0
14 *24:41 *207:Z 0
15 *24:41 *25:6 0
16 *24:41 *25:15 0
17 *24:41 *25:19 0
18 *24:41 *56:6 0
19 *24:41 *56:11 0
20 *171:A *174:A 0
21 *171:A *24:21 0
22 *173:A *24:21 0
23 *227:A *24:13 0
24 *227:A *24:41 0
25 *19:29 *174:A 0
26 *20:17 *24:21 0
27 *22:15 *174:A 0
28 *22:15 *24:21 0
*RES
1 *156:X *24:8 40.5356 
2 *24:8 *24:13 3.5638 
3 *24:13 *24:21 31.433 
4 *24:21 *174:A 21.3184 
5 *24:13 *24:41 28.1885 
6 *24:41 *166:A 21.1845 
*END

*D_NET *25 0.002923
*CONN
*I *167:A I *D sg13g2_buf_16
*I *175:A I *D sg13g2_buf_16
*I *157:X O *D sg13g2_buf_16
*CAP
1 *167:A 5.46947e-05
2 *175:A 0
3 *157:X 0.000115272
4 *25:33 0.000933352
5 *25:28 0.000930559
6 *25:19 0.000140546
7 *25:15 0.000360973
8 *25:6 0.000387599
9 *167:A *236:A 0
10 *25:6 *196:A 0
11 *25:15 *196:A 0
12 *25:19 *196:A 0
13 *24:41 *25:6 0
14 *24:41 *25:15 0
15 *24:41 *25:19 0
*RES
1 *157:X *25:6 20.9682 
2 *25:6 *25:15 2.2794 
3 *25:15 *25:19 0.9682 
4 *25:19 *175:A 20 
5 *25:19 *25:28 20.4476 
6 *25:28 *25:33 7.519 
7 *25:33 *167:A 40.5356 
*END

*D_NET *26 0.000773804
*CONN
*I *168:A I *D sg13g2_buf_16
*I *158:X O *D sg13g2_buf_16
*CAP
1 *168:A 9.6603e-05
2 *158:X 0.000107287
3 *26:11 0.000279615
4 *26:6 0.000290299
5 *168:A *54:10 0
6 *168:A *93:21 0
7 *26:6 *54:10 0
8 *26:11 *54:10 0
9 *26:11 *93:21 0
*RES
1 *158:X *26:6 20.9682 
2 *26:6 *26:11 1.6171 
3 *26:11 *168:A 20.9682 
*END

*D_NET *27 0.00191911
*CONN
*I *169:A I *D sg13g2_buf_16
*I *159:X O *D sg13g2_buf_16
*CAP
1 *169:A 0.000104056
2 *159:X 0.000105893
3 *27:19 0.000853664
4 *27:6 0.0008555
5 *27:6 *236:A 0
6 *27:19 *209:A 0
7 *27:19 *236:A 0
8 *27:19 *62:37 0
9 *27:19 *62:43 0
10 *27:19 *62:50 0
11 *27:19 *62:59 0
*RES
1 *159:X *27:6 21.2051 
2 *27:6 *27:19 7.4778 
3 *27:19 *169:A 20.8137 
*END

*D_NET *28 0.00229751
*CONN
*I *176:A I *D sg13g2_buf_16
*I *170:A I *D sg13g2_buf_16
*I *160:X O *D sg13g2_buf_16
*CAP
1 *176:A 8.24614e-05
2 *170:A 0.000119381
3 *160:X 0
4 *28:33 0.000647421
5 *28:24 0.000616564
6 *28:11 0.000272975
7 *28:6 0.000330349
8 *28:4 0.000228359
9 *170:A *86:10 0
10 *176:A *212:A 0
11 *176:A *54:10 0
12 *28:11 *209:TE_B 0
13 *28:11 *86:10 0
14 *28:33 *160:A 0
15 *28:33 *212:A 0
16 *28:33 *35:8 0
17 *28:33 *54:10 0
18 *28:33 *60:12 0
19 *28:33 *68:6 0
20 *28:33 *68:11 0
21 *228:A *170:A 0
*RES
1 *160:X *28:4 20 
2 *28:4 *28:6 1.6171 
3 *28:6 *28:11 1.6171 
4 *28:11 *170:A 21.1845 
5 *28:4 *28:24 20.5356 
6 *28:24 *28:33 24.5653 
7 *28:33 *176:A 20.9682 
*END

*D_NET *29 0.00154492
*CONN
*I *233:A I *D sg13g2_buf_4
*I *161:X O *D sg13g2_buf_16
*CAP
1 *233:A 0.000492298
2 *161:X 0.0001628
3 *29:8 0.000655098
4 *233:A *185:A 0
5 *233:A *192:TE_B 0
6 *233:A *238:A 0
7 *233:A *239:A 0
8 *233:A *72:10 0
9 *29:8 *39:12 0
10 *29:8 *39:29 0.000234726
11 *6:9 *29:8 0
*RES
1 *161:X *29:8 42.0806 
2 *29:8 *233:A 44.5938 
*END

*D_NET *30 0.0033139
*CONN
*I *186:A I *D sg13g2_buf_1
*I *191:A I *D sg13g2_einvn_8
*I *162:X O *D sg13g2_buf_16
*CAP
1 *186:A 0
2 *191:A 0
3 *162:X 0.000568361
4 *30:16 0.00108859
5 *30:10 0.00165695
6 *30:10 *45:8 0
7 *30:10 *58:20 0
8 *30:16 *235:A 0
9 *30:16 *41:10 0
10 *30:16 *49:6 0
11 *30:16 *58:20 0
12 *20:17 *30:10 0
*RES
1 *162:X *30:10 45.15 
2 *30:10 *30:16 31.2373 
3 *30:16 *191:A 20 
4 *30:10 *186:A 40 
*END

*D_NET *31 0.000140708
*CONN
*I *194:A I *D sg13g2_buf_2
*I *163:X O *D sg13g2_buf_16
*CAP
1 *194:A 7.0354e-05
2 *163:X 7.0354e-05
*RES
1 *163:X *194:A 40.8446 
*END

*D_NET *32 0.00372299
*CONN
*I *234:A I *D sg13g2_inv_4
*I *164:X O *D sg13g2_buf_16
*CAP
1 *234:A 0
2 *164:X 0
3 *32:20 0
4 *32:16 0.00146438
5 *32:12 0.00186149
6 *32:6 0.000397114
*RES
1 *164:X *32:6 40 
2 *32:6 *32:12 43.9964 
3 *32:12 *32:16 39.1374 
4 *32:16 *32:20 40 
5 *32:20 *234:A 20 
*END

*D_NET *33 0.00549239
*CONN
*I *200:A I *D sg13g2_einvn_8
*I *201:A I *D sg13g2_einvn_4
*I *165:X O *D sg13g2_buf_16
*CAP
1 *200:A 0
2 *201:A 0.000711245
3 *165:X 0
4 *33:33 0.000154981
5 *33:27 0.0014273
6 *33:6 0.00198356
7 *201:A *187:TE_B 0
8 *201:A *240:TE_B 0
9 *201:A *54:10 0.000273679
10 *201:A *58:20 0
11 *201:A *84:22 0
12 *201:A *89:16 0
13 *201:A *96:8 0
14 *33:27 *155:A 0
15 *33:27 *159:A 0
16 *33:27 *196:Z 0
17 *33:27 *196:A 0
18 *33:27 *55:10 0
19 *33:27 *55:15 0
20 *33:27 *56:26 0
21 *33:27 *58:20 0
22 *33:27 *85:6 0.000240454
23 *33:27 *85:14 0.000306103
24 *33:27 *89:16 0
25 *33:33 *43:19 0.000395068
26 *33:33 *65:14 0
27 *162:A *33:27 0
*RES
1 *165:X *33:6 40 
2 *33:6 *201:A 47.8383 
3 *33:6 *33:27 32.4439 
4 *33:27 *33:33 41.8334 
5 *33:33 *200:A 20 
*END

*D_NET *34 0.00253135
*CONN
*I *182:A I *D sg13g2_inv_1
*I *203:A I *D sg13g2_buf_2
*I *166:X O *D sg13g2_buf_16
*CAP
1 *182:A 0
2 *203:A 0.000211571
3 *166:X 0.00074721
4 *34:24 0.000535639
5 *203:A *157:A 0
6 *203:A *209:A 0
7 *34:24 *207:A 0.00103693
8 *15:13 *203:A 0
*RES
1 *166:X *203:A 42.4617 
2 *166:X *34:24 48.0855 
3 *34:24 *182:A 40 
*END

*D_NET *35 0.00360093
*CONN
*I *210:A I *D sg13g2_einvn_4
*I *209:A I *D sg13g2_einvn_8
*I *167:X O *D sg13g2_buf_16
*CAP
1 *210:A 0.000170476
2 *209:A 0.000377579
3 *167:X 0.000305553
4 *35:8 0.000853608
5 *209:A *157:A 0
6 *209:A *210:TE_B 0.000209308
7 *209:A *62:37 0
8 *210:A *37:10 0
9 *210:A *54:12 0.000444607
10 *35:8 *37:10 0
11 *35:8 *54:12 0.000933806
12 *35:8 *60:12 0
13 *203:A *209:A 0
14 *15:13 *209:A 0.000305993
15 *27:19 *209:A 0
16 *28:33 *35:8 0
*RES
1 *167:X *35:8 44.7998 
2 *35:8 *209:A 43.7801 
3 *35:8 *210:A 42.3999 
*END

*D_NET *36 0.00117839
*CONN
*I *212:A I *D sg13g2_buf_2
*I *168:X O *D sg13g2_buf_16
*CAP
1 *212:A 0.000589195
2 *168:X 0.000589195
3 *212:A *93:21 0
4 *212:A *97:10 0
5 *176:A *212:A 0
6 *28:33 *212:A 0
*RES
1 *168:X *212:A 46.3242 
*END

*D_NET *37 0.00327035
*CONN
*I *236:A I *D sg13g2_inv_4
*I *169:X O *D sg13g2_buf_16
*CAP
1 *236:A 0.00070149
2 *169:X 0.000709266
3 *37:10 0.00141076
4 *236:A *210:TE_B 0
5 *236:A *241:A 0
6 *236:A *54:10 0
7 *37:10 *43:19 0
8 *37:10 *54:12 0
9 *37:10 *60:12 0
10 *37:10 *60:25 0.000448842
11 *37:10 *85:14 0
12 *167:A *236:A 0
13 *210:A *37:10 0
14 *27:6 *236:A 0
15 *27:19 *236:A 0
16 *35:8 *37:10 0
*RES
1 *169:X *37:10 47.5602 
2 *37:10 *236:A 47.2409 
*END

*D_NET *38 0.00228659
*CONN
*I *213:A I *D sg13g2_buf_1
*I *219:A I *D sg13g2_einvn_4
*I *184:A I *D sg13g2_inv_2
*I *170:X O *D sg13g2_buf_16
*CAP
1 *213:A 3.07051e-05
2 *219:A 3.13122e-05
3 *184:A 0.000340048
4 *170:X 0.000577647
5 *38:12 0.000534941
6 *38:8 0.000771934
7 *184:A *219:TE_B 0
8 *184:A *64:8 0
9 *213:A *216:Z 0
10 *219:A *219:TE_B 0
11 *38:8 *207:A 0
12 *38:8 *62:13 0
13 *38:12 *64:8 0
14 *38:12 *79:10 0
15 *228:A *213:A 0
16 *16:13 *184:A 0
*RES
1 *170:X *38:8 46.283 
2 *38:8 *38:12 1.9055 
3 *38:12 *184:A 43.3887 
4 *38:12 *219:A 40.3193 
5 *38:8 *213:A 40.3193 
*END

*D_NET *39 0.00865697
*CONN
*I *179:A I *D sg13g2_inv_1
*I *185:A I *D sg13g2_buf_2
*I *171:X O *D sg13g2_buf_16
*CAP
1 *179:A 0
2 *185:A 0.000123955
3 *171:X 0.00054324
4 *39:29 0.000313805
5 *39:12 0.00209743
6 *39:8 0.00220291
7 *39:8 *189:A 0
8 *39:8 *193:A 0
9 *39:8 *76:8 0
10 *39:12 *47:17 0
11 *39:12 *48:11 0
12 *39:12 *84:12 0.0031409
13 *221:A *185:A 0
14 *221:A *39:29 0
15 *230:A *39:8 0
16 *233:A *185:A 0
17 *6:9 *39:12 0
18 *19:11 *39:12 0
19 *20:8 *39:8 0
20 *20:17 *39:8 0
21 *20:30 *39:8 0
22 *29:8 *39:12 0
23 *29:8 *39:29 0.000234726
*RES
1 *171:X *39:8 45.0779 
2 *39:8 *39:12 40.8678 
3 *39:12 *185:A 21.1845 
4 *39:12 *39:29 44.1715 
5 *39:29 *179:A 20 
*END

*D_NET *40 0.00430291
*CONN
*I *192:A I *D sg13g2_einvn_4
*I *180:A I *D sg13g2_inv_4
*I *172:X O *D sg13g2_buf_16
*CAP
1 *192:A 0
2 *180:A 0.000232996
3 *172:X 0.000471216
4 *40:14 0.000782258
5 *40:8 0.00102048
6 *40:8 *238:TE_B 0
7 *40:8 *84:12 0
8 *40:8 *84:22 1.54008e-05
9 *40:14 *42:8 0
10 *40:14 *46:8 0.00178056
11 *22:15 *180:A 0
12 *22:15 *40:14 0
*RES
1 *172:X *40:8 24.5938 
2 *40:8 *40:14 48.2606 
3 *40:14 *180:A 21.8084 
4 *40:8 *192:A 20 
*END

*D_NET *41 0.00564155
*CONN
*I *195:A I *D sg13g2_buf_1
*I *181:A I *D sg13g2_inv_8
*I *173:X O *D sg13g2_buf_16
*CAP
1 *195:A 0.000730147
2 *181:A 0.000381608
3 *173:X 0.000455445
4 *41:10 0.0015672
5 *195:A *49:26 0
6 *195:A *76:14 0
7 *195:A *89:14 0.000404269
8 *195:A *89:16 0.00122629
9 *41:10 *49:26 0
10 *41:10 *89:16 0.00087659
11 *21:8 *195:A 0
12 *21:13 *195:A 0
13 *24:21 *181:A 0
14 *30:16 *41:10 0
*RES
1 *173:X *41:10 45.0264 
2 *41:10 *181:A 43.4814 
3 *41:10 *195:A 48.9507 
*END

*D_NET *42 0.00160699
*CONN
*I *235:A I *D sg13g2_buf_4
*I *174:X O *D sg13g2_buf_16
*CAP
1 *235:A 0.000606609
2 *174:X 0.000196887
3 *42:8 0.000803496
4 *235:A *49:6 0
5 *235:A *49:11 0
6 *235:A *49:17 0
7 *235:A *49:21 0
8 *235:A *76:14 0
9 *30:16 *235:A 0
10 *40:14 *42:8 0
*RES
1 *174:X *42:8 41.8334 
2 *42:8 *235:A 45.8916 
*END

*D_NET *43 0.0052717
*CONN
*I *204:A I *D sg13g2_buf_1
*I *183:A I *D sg13g2_inv_8
*I *175:X O *D sg13g2_buf_16
*CAP
1 *204:A 0
2 *183:A 0.000240779
3 *175:X 0.000179723
4 *43:19 0.000877851
5 *43:6 0.00129835
6 *183:A *202:A 0
7 *183:A *207:Z 0
8 *183:A *65:14 0
9 *43:6 *202:A 0
10 *43:6 *56:6 0
11 *43:6 *56:11 0
12 *43:19 *60:12 0.000874014
13 *43:19 *60:25 0.00140591
14 *43:19 *65:14 0
15 *43:19 *85:14 0
16 *33:33 *43:19 0.000395068
17 *37:10 *43:19 0
*RES
1 *175:X *43:6 21.8334 
2 *43:6 *183:A 22.3999 
3 *43:6 *43:19 31.9686 
4 *43:19 *204:A 40 
*END

*D_NET *44 0.000313886
*CONN
*I *218:A I *D sg13g2_einvn_8
*I *176:X O *D sg13g2_buf_16
*CAP
1 *218:A 0.000156943
2 *176:X 0.000156943
3 *218:A *237:A 0
*RES
1 *176:X *218:A 41.4008 
*END

*D_NET *45 0.00264296
*CONN
*I *189:A I *D sg13g2_einvn_4
*I *186:X O *D sg13g2_buf_1
*CAP
1 *189:A 0.000828481
2 *186:X 0.000493
3 *45:8 0.00132148
4 *189:A *58:20 0
5 *189:A *76:8 0
6 *189:A *89:14 0
7 *20:17 *189:A 0
8 *21:8 *189:A 0
9 *30:10 *45:8 0
10 *39:8 *189:A 0
*RES
1 *186:X *45:8 45.2942 
2 *45:8 *189:A 46.3864 
*END

*D_NET *46 0.00719486
*CONN
*I *193:A I *D sg13g2_inv_1
*I *189:Z O *D sg13g2_einvn_4
*I *192:Z O *D sg13g2_einvn_4
*CAP
1 *193:A 0.000205123
2 *189:Z 0
3 *192:Z 0
4 *46:8 0.000954165
5 *46:6 0.000749042
6 *193:A *88:8 0.000288454
7 *46:8 *88:8 0.00321752
8 *22:15 *46:8 0
9 *39:8 *193:A 0
10 *40:14 *46:8 0.00178056
*RES
1 *192:Z *46:6 40 
2 *46:6 *46:8 14.935 
3 *46:8 *189:Z 40 
4 *46:8 *193:A 42.6471 
*END

*D_NET *47 0.00194799
*CONN
*I *151:A I *D sg13g2_buf_16
*I *244:X O *D sg13g2_buf_2
*CAP
1 *151:A 0.000113708
2 *244:X 5.88086e-05
3 *47:17 0.000915189
4 *47:8 0.00086029
5 *47:17 *52:12 0
6 *47:17 *88:8 0
7 *244:A *47:8 0
8 *22:15 *151:A 0
9 *22:15 *47:17 0
10 *39:12 *47:17 0
*RES
1 *244:X *47:8 40.5356 
2 *47:8 *47:17 27.8074 
3 *47:17 *151:A 20.9682 
*END

*D_NET *48 0.00305347
*CONN
*I *152:A I *D sg13g2_buf_16
*I *185:X O *D sg13g2_buf_2
*CAP
1 *152:A 0
2 *185:X 0
3 *48:11 0.00152673
4 *48:6 0.00152673
5 *48:11 *52:12 0
6 *39:12 *48:11 0
*RES
1 *185:X *48:6 40 
2 *48:6 *48:11 15.4294 
3 *48:11 *152:A 40 
*END

*D_NET *49 0.00423318
*CONN
*I *177:A I *D sg13g2_buf_16
*I *187:Z O *D sg13g2_einvn_4
*I *153:A I *D sg13g2_buf_16
*I *191:Z O *D sg13g2_einvn_8
*CAP
1 *177:A 5.68535e-05
2 *187:Z 0
3 *153:A 6.34193e-05
4 *191:Z 0
5 *49:53 0.000486244
6 *49:44 0.000559274
7 *49:26 0.00102741
8 *49:21 0.00101407
9 *49:17 0.000196387
10 *49:11 0.000303257
11 *49:6 0.000276667
12 *49:4 0.000249599
13 *49:6 *154:A 0
14 *49:6 *50:11 0
15 *49:11 *154:A 0
16 *49:21 *187:TE_B 0
17 *49:26 *76:14 0
18 *49:26 *89:16 0
19 *49:44 *50:6 0
20 *49:53 *50:6 0
21 *49:53 *52:12 0
22 *195:A *49:26 0
23 *235:A *49:6 0
24 *235:A *49:11 0
25 *235:A *49:17 0
26 *235:A *49:21 0
27 *30:16 *49:6 0
28 *41:10 *49:26 0
*RES
1 *191:Z *49:4 20 
2 *49:4 *49:6 1.1845 
3 *49:6 *49:11 1.7304 
4 *49:11 *49:17 1.6377 
5 *49:17 *49:21 20.5356 
6 *49:21 *49:26 7.7662 
7 *49:26 *153:A 40.5356 
8 *49:17 *187:Z 20 
9 *49:4 *49:44 1.1845 
10 *49:44 *49:53 24.0685 
11 *49:53 *177:A 40.5356 
*END

*D_NET *50 0.000673843
*CONN
*I *154:A I *D sg13g2_buf_16
*I *177:X O *D sg13g2_buf_16
*CAP
1 *154:A 0.000109069
2 *177:X 9.39025e-05
3 *50:11 0.000243019
4 *50:6 0.000227852
5 *154:A *238:Z 0
6 *154:A *84:22 0
7 *50:6 *238:Z 0
8 *50:11 *238:Z 0
9 *49:6 *154:A 0
10 *49:6 *50:11 0
11 *49:11 *154:A 0
12 *49:44 *50:6 0
13 *49:53 *50:6 0
*RES
1 *177:X *50:6 20.9682 
2 *50:6 *50:11 1.4008 
3 *50:11 *154:A 21.1845 
*END

*D_NET *51 0.00234318
*CONN
*I *187:TE_B I *D sg13g2_einvn_4
*I *188:Y O *D sg13g2_inv_1
*CAP
1 *187:TE_B 5.24422e-05
2 *188:Y 0.000514671
3 *51:8 0.000567114
4 *51:8 *146:A_N 0.000232842
5 *51:8 *199:A 0
6 *51:8 *72:30 0
7 *51:8 *84:22 0.00097611
8 *51:8 *89:16 0
9 *51:8 *93:42 0
10 *201:A *187:TE_B 0
11 *17:22 *51:8 0
12 *49:21 *187:TE_B 0
*RES
1 *188:Y *51:8 46.283 
2 *51:8 *187:TE_B 40.5356 
*END

*D_NET *52 0.00673534
*CONN
*I *189:TE_B I *D sg13g2_einvn_4
*I *190:Y O *D sg13g2_inv_1
*CAP
1 *189:TE_B 0
2 *190:Y 0
3 *52:12 0.00132403
4 *52:6 0.00132403
5 *52:12 *190:A 0.000871097
6 *52:12 *88:8 0.00321618
7 *19:29 *52:12 0
8 *20:17 *52:12 0
9 *47:17 *52:12 0
10 *48:11 *52:12 0
11 *49:53 *52:12 0
*RES
1 *190:Y *52:6 40 
2 *52:6 *52:12 39.8893 
3 *52:12 *189:TE_B 20 
*END

*D_NET *53 0.000827392
*CONN
*I *198:A I *D sg13g2_einvn_4
*I *195:X O *D sg13g2_buf_1
*CAP
1 *198:A 0.000413696
2 *195:X 0.000413696
3 *198:A *58:20 0
4 *198:A *89:14 0
5 *231:A *198:A 0
*RES
1 *195:X *198:A 44.4084 
*END

*D_NET *54 0.00934596
*CONN
*I *202:A I *D sg13g2_inv_1
*I *198:Z O *D sg13g2_einvn_4
*I *201:Z O *D sg13g2_einvn_4
*CAP
1 *202:A 0.00047804
2 *198:Z 0.000156281
3 *201:Z 0.00101106
4 *54:12 0.00179562
5 *54:10 0.00217237
6 *198:Z *56:11 0
7 *198:Z *56:17 0
8 *202:A *200:TE_B 0.000306821
9 *202:A *65:14 0.000209526
10 *202:A *85:14 0.000265255
11 *54:10 *241:A 0
12 *54:10 *241:TE_B 0
13 *54:10 *84:22 0
14 *54:10 *93:21 0
15 *54:10 *93:32 0
16 *54:12 *85:14 0.00129889
17 *168:A *54:10 0
18 *176:A *54:10 0
19 *183:A *202:A 0
20 *201:A *54:10 0.000273679
21 *210:A *54:12 0.000444607
22 *236:A *54:10 0
23 *26:6 *54:10 0
24 *26:11 *54:10 0
25 *28:33 *54:10 0
26 *35:8 *54:12 0.000933806
27 *37:10 *54:12 0
28 *43:6 *202:A 0
*RES
1 *201:Z *54:10 49.7541 
2 *54:10 *54:12 14.1934 
3 *54:12 *198:Z 41.6171 
4 *54:12 *202:A 45.6856 
*END

*D_NET *55 0.00109237
*CONN
*I *155:A I *D sg13g2_buf_16
*I *194:X O *D sg13g2_buf_2
*CAP
1 *155:A 0.000153683
2 *194:X 0.000206481
3 *55:15 0.000339705
4 *55:10 0.000392503
5 *162:A *55:15 0
6 *24:21 *155:A 0
7 *24:21 *55:10 0
8 *24:21 *55:15 0
9 *33:27 *155:A 0
10 *33:27 *55:10 0
11 *33:27 *55:15 0
*RES
1 *194:X *55:10 22.3175 
2 *55:10 *55:15 1.6171 
3 *55:15 *155:A 21.8128 
*END

*D_NET *56 0.001665
*CONN
*I *156:A I *D sg13g2_buf_16
*I *196:Z O *D sg13g2_einvn_4
*I *200:Z O *D sg13g2_einvn_8
*CAP
1 *156:A 3.88084e-05
2 *196:Z 0.000107311
3 *200:Z 7.14512e-05
4 *56:26 0.000217793
5 *56:19 0.000196923
6 *56:17 0.000279109
7 *56:11 0.000418005
8 *56:6 0.000335596
9 *156:A *58:20 0
10 *198:Z *56:11 0
11 *198:Z *56:17 0
12 *24:41 *56:6 0
13 *24:41 *56:11 0
14 *33:27 *196:Z 0
15 *33:27 *56:26 0
16 *43:6 *56:6 0
17 *43:6 *56:11 0
*RES
1 *200:Z *56:6 20.5974 
2 *56:6 *56:11 2.4205 
3 *56:11 *56:17 1.8746 
4 *56:17 *56:19 1.0918 
5 *56:19 *56:26 1.4111 
6 *56:26 *196:Z 20.9682 
7 *56:17 *156:A 20.5356 
*END
