*SPEF "ieee 1481-1999"
*DESIGN "delay_line"
*DATE "02:55:48 Sunday February 22, 2026"
*VENDOR "The OpenROAD Project"
*PROGRAM "OpenROAD"
*VERSION "dfc4f595dfb2e1c346492ff1f0274abb28725acf"
*DESIGN_FLOW "NAME_SCOPE LOCAL" "PIN_CAP NONE"
*DIVIDER /
*DELIMITER :
*BUS_DELIMITER []
*T_UNIT 1 NS
*C_UNIT 1 PF
*R_UNIT 1 OHM
*L_UNIT 1 HENRY

*NAME_MAP
*3 clk
*4 clk_delayed
*5 reset
*6 sel[0]
*7 sel[1]
*8 sel[2]
*9 trim[0]
*10 trim[1]
*11 trim[2]
*12 trim[3]
*13 trim[4]
*14 trim[5]
*15 trim[6]
*16 trim[7]
*17 _0_
*18 _1_
*19 clknet_0_dstage\[0\]\.id\.delaybuf0\.A
*20 clknet_0_dstage\[0\]\.id\.delaybuf0\.A_regs
*21 clknet_0_dstage\[0\]\.id\.delaybuf0\.X
*22 clknet_0_dstage\[0\]\.id\.delayen0\.Z
*23 clknet_0_dstage\[0\]\.id\.delayen0\.Z_regs
*24 clknet_0_dstage\[1\]\.id\.delaybuf0\.X
*25 clknet_0_dstage\[1\]\.id\.delayen0\.Z
*26 clknet_0_dstage\[1\]\.id\.delayen0\.Z_regs
*27 clknet_0_dstage\[2\]\.id\.delaybuf0\.X
*28 clknet_0_dstage\[2\]\.id\.delayen0\.Z
*29 clknet_0_dstage\[2\]\.id\.delayen0\.Z_regs
*30 clknet_0_dstage\[3\]\.id\.delaybuf0\.X
*31 clknet_1_0__leaf_dstage\[0\]\.id\.delaybuf0\.A
*32 clknet_1_0__leaf_dstage\[0\]\.id\.delaybuf0\.A_regs
*33 clknet_1_0__leaf_dstage\[0\]\.id\.delaybuf0\.X
*34 clknet_1_0__leaf_dstage\[0\]\.id\.delayen0\.Z
*35 clknet_1_0__leaf_dstage\[0\]\.id\.delayen0\.Z_regs
*36 clknet_1_0__leaf_dstage\[1\]\.id\.delaybuf0\.X
*37 clknet_1_0__leaf_dstage\[1\]\.id\.delayen0\.Z
*38 clknet_1_0__leaf_dstage\[1\]\.id\.delayen0\.Z_regs
*39 clknet_1_0__leaf_dstage\[2\]\.id\.delaybuf0\.X
*40 clknet_1_0__leaf_dstage\[2\]\.id\.delayen0\.Z
*41 clknet_1_0__leaf_dstage\[2\]\.id\.delayen0\.Z_regs
*42 clknet_1_0__leaf_dstage\[3\]\.id\.delaybuf0\.X
*43 clknet_1_1__leaf_dstage\[0\]\.id\.delaybuf0\.X
*44 clknet_1_1__leaf_dstage\[1\]\.id\.delaybuf0\.X
*45 clknet_1_1__leaf_dstage\[2\]\.id\.delaybuf0\.X
*46 clknet_1_1__leaf_dstage\[3\]\.id\.delaybuf0\.X
*47 dstage\[0\]\.id\.d0
*48 dstage\[0\]\.id\.d1
*49 dstage\[0\]\.id\.delaybuf0\.A
*50 dstage\[0\]\.id\.delaybuf0\.A_regs
*51 dstage\[0\]\.id\.delaybuf0\.X
*52 dstage\[0\]\.id\.delayen0\.Z
*53 dstage\[0\]\.id\.delayen0\.Z_regs
*54 dstage\[0\]\.id\.delayen0\.te_b
*55 dstage\[0\]\.id\.delayen1\.te_b
*56 dstage\[1\]\.id\.d0
*57 dstage\[1\]\.id\.d1
*58 dstage\[1\]\.id\.delaybuf0\.X
*59 dstage\[1\]\.id\.delayen0\.Z
*60 dstage\[1\]\.id\.delayen0\.Z_regs
*61 dstage\[1\]\.id\.delayen0\.te_b
*62 dstage\[1\]\.id\.delayen1\.te_b
*63 dstage\[2\]\.id\.d0
*64 dstage\[2\]\.id\.d1
*65 dstage\[2\]\.id\.delaybuf0\.X
*66 dstage\[2\]\.id\.delayen0\.Z
*67 dstage\[2\]\.id\.delayen0\.Z_regs
*68 dstage\[2\]\.id\.delayen0\.te_b
*69 dstage\[2\]\.id\.delayen1\.te_b
*70 dstage\[3\]\.id\.d0
*71 dstage\[3\]\.id\.d1
*72 dstage\[3\]\.id\.delaybuf0\.X
*73 dstage\[3\]\.id\.delayen0\.Z
*74 dstage\[3\]\.id\.delayen0\.te_b
*75 dstage\[3\]\.id\.delayen1\.te_b
*76 net1
*77 net10
*78 net11
*79 net12
*80 net13
*81 net14
*82 net15
*83 net16
*84 net17
*85 net18
*86 net19
*87 net2
*88 net20
*89 net21
*90 net3
*91 net4
*92 net5
*93 net6
*94 net7
*95 net8
*96 net9
*97 u_delay_mux\.clk_pre
*98 u_delay_mux\.gen_clockp_bufs\[0\]\.u_one_hot_tribuf\.TE_B
*99 u_delay_mux\.gen_clockp_bufs\[1\]\.u_one_hot_tribuf\.TE_B
*100 u_delay_mux\.gen_clockp_bufs\[2\]\.u_one_hot_tribuf\.TE_B
*101 u_delay_mux\.gen_clockp_bufs\[3\]\.u_one_hot_tribuf\.TE_B
*102 u_delay_mux\.gen_clockp_bufs\[4\]\.u_one_hot_tribuf\.TE_B
*103 FILLER_0_0
*104 FILLER_10_0
*105 FILLER_10_11
*106 FILLER_10_7
*107 FILLER_11_4
*108 FILLER_11_6
*109 FILLER_11_65
*110 FILLER_12_0
*111 FILLER_12_4
*112 FILLER_1_0
*113 FILLER_1_21
*114 FILLER_1_47
*115 FILLER_1_86
*116 FILLER_2_0
*117 FILLER_2_23
*118 FILLER_2_97
*119 FILLER_3_4
*120 FILLER_3_56
*121 FILLER_4_62
*122 FILLER_4_94
*123 FILLER_5_25
*124 FILLER_5_52
*125 FILLER_6_112
*126 FILLER_6_4
*127 FILLER_6_42
*128 FILLER_7_4
*129 FILLER_7_67
*130 FILLER_8_74
*131 FILLER_9_0
*132 FILLER_9_4
*133 FILLER_9_73
*134 _2_
*135 _3_
*136 _4_
*137 _5_
*138 _6_
*139 _7_
*140 _8_
*141 clkbuf_0_dstage\[0\]\.id\.delaybuf0\.A
*142 clkbuf_0_dstage\[0\]\.id\.delaybuf0\.A_regs
*143 clkbuf_0_dstage\[0\]\.id\.delaybuf0\.X
*144 clkbuf_0_dstage\[0\]\.id\.delayen0\.Z
*145 clkbuf_0_dstage\[0\]\.id\.delayen0\.Z_regs
*146 clkbuf_0_dstage\[1\]\.id\.delaybuf0\.X
*147 clkbuf_0_dstage\[1\]\.id\.delayen0\.Z
*148 clkbuf_0_dstage\[1\]\.id\.delayen0\.Z_regs
*149 clkbuf_0_dstage\[2\]\.id\.delaybuf0\.X
*150 clkbuf_0_dstage\[2\]\.id\.delayen0\.Z
*151 clkbuf_0_dstage\[2\]\.id\.delayen0\.Z_regs
*152 clkbuf_0_dstage\[3\]\.id\.delaybuf0\.X
*153 clkbuf_1_0__f_dstage\[0\]\.id\.delaybuf0\.A
*154 clkbuf_1_0__f_dstage\[0\]\.id\.delaybuf0\.A_regs
*155 clkbuf_1_0__f_dstage\[0\]\.id\.delaybuf0\.X
*156 clkbuf_1_0__f_dstage\[0\]\.id\.delayen0\.Z
*157 clkbuf_1_0__f_dstage\[0\]\.id\.delayen0\.Z_regs
*158 clkbuf_1_0__f_dstage\[1\]\.id\.delaybuf0\.X
*159 clkbuf_1_0__f_dstage\[1\]\.id\.delayen0\.Z
*160 clkbuf_1_0__f_dstage\[1\]\.id\.delayen0\.Z_regs
*161 clkbuf_1_0__f_dstage\[2\]\.id\.delaybuf0\.X
*162 clkbuf_1_0__f_dstage\[2\]\.id\.delayen0\.Z
*163 clkbuf_1_0__f_dstage\[2\]\.id\.delayen0\.Z_regs
*164 clkbuf_1_0__f_dstage\[3\]\.id\.delaybuf0\.X
*165 clkbuf_1_1__f_dstage\[0\]\.id\.delaybuf0\.X
*166 clkbuf_1_1__f_dstage\[1\]\.id\.delaybuf0\.X
*167 clkbuf_1_1__f_dstage\[2\]\.id\.delaybuf0\.X
*168 clkbuf_1_1__f_dstage\[3\]\.id\.delaybuf0\.X
*169 clkbuf_regs_0_clk
*170 clkbuf_regs_1_clk
*171 clkbuf_regs_2_clk
*172 clkbuf_regs_3_clk
*173 clkload0
*174 clkload1
*175 clkload2
*176 clkload3
*177 dstage\[0\]\.id\.delaybuf0\.u_buf
*178 dstage\[0\]\.id\.delaybuf1\.u_buf
*179 dstage\[0\]\.id\.delayen0\.u_einv
*180 dstage\[0\]\.id\.delayen0\.u_inv_te
*181 dstage\[0\]\.id\.delayen1\.u_einv
*182 dstage\[0\]\.id\.delayen1\.u_inv_te
*183 dstage\[0\]\.id\.delayenb0\.u_einv
*184 dstage\[0\]\.id\.delayenb1\.u_einv
*185 dstage\[0\]\.id\.delayint0\.u_inv_14
*186 dstage\[1\]\.id\.delaybuf0\.u_buf
*187 dstage\[1\]\.id\.delaybuf1\.u_buf
*188 dstage\[1\]\.id\.delayen0\.u_einv
*189 dstage\[1\]\.id\.delayen0\.u_inv_te
*190 dstage\[1\]\.id\.delayen1\.u_einv
*191 dstage\[1\]\.id\.delayen1\.u_inv_te
*192 dstage\[1\]\.id\.delayenb0\.u_einv
*193 dstage\[1\]\.id\.delayenb1\.u_einv
*194 dstage\[1\]\.id\.delayint0\.u_inv_16
*195 dstage\[2\]\.id\.delaybuf0\.u_buf
*196 dstage\[2\]\.id\.delaybuf1\.u_buf
*197 dstage\[2\]\.id\.delayen0\.u_einv
*198 dstage\[2\]\.id\.delayen0\.u_inv_te
*199 dstage\[2\]\.id\.delayen1\.u_einv
*200 dstage\[2\]\.id\.delayen1\.u_inv_te
*201 dstage\[2\]\.id\.delayenb0\.u_einv
*202 dstage\[2\]\.id\.delayenb1\.u_einv
*203 dstage\[2\]\.id\.delayint0\.u_inv_18
*204 dstage\[3\]\.id\.delaybuf0\.u_buf
*205 dstage\[3\]\.id\.delaybuf1\.u_buf
*206 dstage\[3\]\.id\.delayen0\.u_einv
*207 dstage\[3\]\.id\.delayen0\.u_inv_te
*208 dstage\[3\]\.id\.delayen1\.u_einv
*209 dstage\[3\]\.id\.delayen1\.u_inv_te
*210 dstage\[3\]\.id\.delayenb0\.u_einv
*211 dstage\[3\]\.id\.delayenb1\.u_einv
*212 dstage\[3\]\.id\.delayint0\.u_inv_20
*213 input1
*214 input10
*215 input11
*216 input2
*217 input3
*218 input4
*219 input5
*220 input6
*221 input7
*222 input8
*223 input9
*224 output12
*225 phase_taps\[0\]\.ibuf_pre_first\.u_inv_13
*226 phase_taps\[1\]\.ibuf_pre_first\.u_inv_15
*227 phase_taps\[2\]\.ibuf_pre_first\.u_inv_17
*228 phase_taps\[3\]\.ibuf_pre_first\.u_inv_19
*229 phase_taps\[4\]\.ibuf_pre_first\.u_inv_21
*230 u_delay_mux\.gen_clockp_bufs\[0\]\.u_one_hot_tribuf\.u_ebuf
*231 u_delay_mux\.gen_clockp_bufs\[1\]\.u_one_hot_tribuf\.u_ebuf
*232 u_delay_mux\.gen_clockp_bufs\[2\]\.u_one_hot_tribuf\.u_ebuf
*233 u_delay_mux\.gen_clockp_bufs\[3\]\.u_one_hot_tribuf\.u_ebuf
*234 u_delay_mux\.gen_clockp_bufs\[4\]\.u_one_hot_tribuf\.u_ebuf
*235 u_delay_mux\.u_clkbuf\.u_buf
*236 u_inbuf\.u_buf

*PORTS
clk I
clk_delayed O
reset I
sel[0] I
sel[1] I
sel[2] I
trim[0] I
trim[1] I
trim[2] I
trim[3] I
trim[4] I
trim[5] I
trim[6] I
trim[7] I

*D_NET *3 0.00367001
*CONN
*P clk I
*I *236:A I *D sg13g2_buf_2
*CAP
1 clk 0.00147284
2 *236:A 0.000362167
3 *3:13 0.00183501
4 *236:A *183:TE_B 0
5 *236:A *192:A 0
6 *236:A *43:14 0
7 *236:A *59:8 0
8 *236:A *59:19 0
9 *3:13 *6:9 0
10 *3:13 *19:15 0
11 *3:13 *43:14 0
*RES
1 clk *3:13 36.2946 
2 *3:13 *236:A 43.5638 
*END

*D_NET *4 0.000654214
*CONN
*P clk_delayed O
*I *224:X O *D sg13g2_buf_1
*CAP
1 clk_delayed 0.000238494
2 *224:X 0.000238494
3 clk_delayed *79:8 0.000177227
*RES
1 *224:X clk_delayed 42.8634 
*END

*D_NET *6 0.00456302
*CONN
*P sel[0] I
*I *213:A I *D sg13g2_buf_1
*CAP
1 sel[0] 0.000959337
2 *213:A 0.000219447
3 *6:9 0.00117878
4 *213:A *222:A 0
5 *6:9 *13:9 0.00220545
6 *6:9 *43:14 0
7 *3:13 *6:9 0
*RES
1 sel[0] *6:9 34.0492 
2 *6:9 *213:A 42.4823 
*END

*D_NET *7 0.000781647
*CONN
*P sel[1] I
*I *216:A I *D sg13g2_buf_1
*CAP
1 sel[1] 0.000338417
2 *216:A 0.000338417
3 *216:A *217:A 8.00842e-05
4 *216:A *79:8 2.4729e-05
*RES
1 sel[1] *216:A 43.502 
*END

*D_NET *8 0.000793818
*CONN
*P sel[2] I
*I *217:A I *D sg13g2_buf_1
*CAP
1 sel[2] 0.000268459
2 *217:A 0.000268459
3 *217:A *79:8 0.000176815
4 *216:A *217:A 8.00842e-05
*RES
1 sel[2] *217:A 42.8634 
*END

*D_NET *9 0.00349794
*CONN
*P trim[0] I
*I *218:A I *D sg13g2_buf_1
*CAP
1 trim[0] 0.00124763
2 *218:A 0
3 *9:19 0.000308047
4 *9:13 0.00155568
5 *9:13 *183:TE_B 0.000242368
6 *9:13 *192:A 0
7 *9:13 *10:11 0.000144223
8 *9:13 *52:60 0
*RES
1 trim[0] *9:13 32.8956 
2 *9:13 *9:19 43.5638 
3 *9:19 *218:A 20 
*END

*D_NET *10 0.00674472
*CONN
*P trim[1] I
*I *219:A I *D sg13g2_buf_1
*CAP
1 trim[1] 0.000102038
2 *219:A 0
3 *10:21 0.00290157
4 *10:11 0.0030036
5 *10:21 *206:TE_B 0.000241977
6 *10:21 *207:A 0
7 *10:21 *233:TE_B 0
8 *10:21 *14:9 0
9 *10:21 *36:18 0
10 *10:21 *37:14 0
11 *10:21 *79:8 0
12 *10:21 *83:12 0
13 *10:21 *96:12 0
14 *10:21 *97:39 7.6498e-05
15 *10:21 *101:8 0.000274812
16 *9:13 *10:11 0.000144223
*RES
1 trim[1] *10:11 41.1639 
2 *10:11 *10:21 49.4889 
3 *10:21 *219:A 20 
*END

*D_NET *11 0.00208927
*CONN
*P trim[2] I
*I *220:A I *D sg13g2_buf_1
*CAP
1 trim[2] 0.000891569
2 *220:A 0.000153064
3 *11:11 0.00104463
4 *220:A *214:A 0
5 *11:11 *15:9 0
6 *11:11 *77:8 0
*RES
1 trim[2] *11:11 49.7232 
2 *11:11 *220:A 21.6171 
*END

*D_NET *12 0.000786335
*CONN
*P trim[3] I
*I *221:A I *D sg13g2_buf_1
*CAP
1 trim[3] 0.000272061
2 *221:A 0.000272061
3 *221:A *79:8 0.000242213
*RES
1 trim[3] *221:A 43.296 
*END

*D_NET *13 0.00559762
*CONN
*P trim[4] I
*I *222:A I *D sg13g2_buf_1
*CAP
1 trim[4] 0.00122151
2 *222:A 0.000450627
3 *13:9 0.00167214
4 *222:A *225:A 4.78853e-05
5 *222:A *43:8 0
6 *222:A *76:6 0
7 *222:A *98:10 0
8 *13:9 *43:14 0
9 *213:A *222:A 0
10 *6:9 *13:9 0.00220545
*RES
1 trim[4] *13:9 37.5409 
2 *13:9 *222:A 44.8616 
*END

*D_NET *14 0.00530104
*CONN
*P trim[5] I
*I *223:A I *D sg13g2_buf_1
*CAP
1 trim[5] 0.00265052
2 *223:A 0
3 *14:9 0.00265052
4 *14:9 *233:TE_B 0
5 *14:9 *28:15 0
6 *14:9 *59:34 0
7 *14:9 *59:36 0
8 *14:9 *73:14 0
9 *14:9 *92:12 0
10 *14:9 *101:8 0
11 *10:21 *14:9 0
*RES
1 trim[5] *14:9 46.6564 
2 *14:9 *223:A 20 
*END

*D_NET *15 0.00287933
*CONN
*P trim[6] I
*I *214:A I *D sg13g2_buf_1
*CAP
1 trim[6] 0.00120436
2 *214:A 0.000235311
3 *15:9 0.00143967
4 *214:A *197:TE_B 0
5 *15:9 *202:TE_B 0
6 *15:9 *77:8 0
7 *220:A *214:A 0
8 *11:11 *15:9 0
*RES
1 trim[6] *15:9 33.802 
2 *15:9 *214:A 42.4823 
*END

*D_NET *16 0.000510054
*CONN
*P trim[7] I
*I *215:A I *D sg13g2_buf_1
*CAP
1 trim[7] 0.000199141
2 *215:A 0.000199141
3 *215:A *71:14 0.000111773
*RES
1 trim[7] *215:A 42.4308 
*END

*D_NET *17 0.00190164
*CONN
*I *136:B I *D sg13g2_nand2b_1
*I *137:B I *D sg13g2_nand2_1
*I *135:Y O *D sg13g2_nor2_1
*CAP
1 *136:B 0.000206208
2 *137:B 0.000507699
3 *135:Y 8.48164e-05
4 *17:8 0.000798724
5 *136:B *182:A 0
6 *136:B *33:12 0
7 *136:B *76:8 0
8 *136:B *98:10 0
9 *137:B *137:A 0
10 *137:B *140:A 0
11 *137:B *140:B 0
12 *137:B *18:8 0
13 *137:B *76:8 0
14 *137:B *87:20 4.77425e-05
15 *137:B *90:23 0.00020871
16 *137:B *90:38 4.77425e-05
17 *17:8 *182:A 0
18 *17:8 *76:8 0
*RES
1 *135:Y *17:8 20.9167 
2 *17:8 *137:B 24.7641 
3 *17:8 *136:B 22.1883 
*END

*D_NET *18 0.00325528
*CONN
*I *139:B I *D sg13g2_nand2b_1
*I *140:B I *D sg13g2_nand2_1
*I *138:Y O *D sg13g2_nor2b_1
*CAP
1 *139:B 0.000702789
2 *140:B 0.000204583
3 *138:Y 0.00027483
4 *18:8 0.0011822
5 *139:B *139:A_N 0
6 *139:B *180:A 0.000143938
7 *139:B *232:Z 0.00015611
8 *139:B *21:27 0
9 *139:B *21:31 0
10 *139:B *97:10 0.000446682
11 *139:B *99:8 0
12 *140:B *140:A 0
13 *140:B *92:12 0
14 *140:B *99:8 0
15 *18:8 *137:A 0.000144142
16 *18:8 *210:A 0
17 *137:B *140:B 0
18 *137:B *18:8 0
*RES
1 *138:Y *18:8 42.6986 
2 *18:8 *140:B 42.0909 
3 *18:8 *139:B 48.1623 
*END

*D_NET *19 0.00126382
*CONN
*I *153:A I *D sg13g2_buf_16
*I *141:X O *D sg13g2_buf_16
*CAP
1 *153:A 0
2 *141:X 0.000111533
3 *19:15 0.000520375
4 *19:6 0.000631908
5 *19:6 *230:Z 0
6 *19:15 *142:A 0
7 *19:15 *43:14 0
8 *3:13 *19:15 0
*RES
1 *141:X *19:6 20.8652 
2 *19:6 *19:15 24.6659 
3 *19:15 *153:A 40 
*END

*D_NET *20 0.00149128
*CONN
*I *154:A I *D sg13g2_buf_16
*I *142:X O *D sg13g2_buf_16
*CAP
1 *154:A 0
2 *142:X 0.000139698
3 *20:15 0.000605944
4 *20:6 0.000745642
5 *20:6 *33:27 0
6 *20:15 *169:A 0
7 *20:15 *44:16 0
8 *20:15 *48:18 0
9 *20:15 *49:22 0
*RES
1 *142:X *20:6 21.4008 
2 *20:6 *20:15 26.5096 
3 *20:15 *154:A 40 
*END

*D_NET *21 0.00350541
*CONN
*I *165:A I *D sg13g2_buf_16
*I *155:A I *D sg13g2_buf_16
*I *143:X O *D sg13g2_buf_16
*CAP
1 *165:A 0.000147854
2 *155:A 5.96679e-05
3 *143:X 6.68694e-05
4 *21:45 0.000522385
5 *21:31 0.000171751
6 *21:27 0.000611727
7 *21:19 0.00136623
8 *21:6 0.000558926
9 *155:A *180:A 0
10 *155:A *232:Z 0
11 *165:A *230:A 0
12 *21:19 *33:12 0
13 *21:19 *44:10 0
14 *21:19 *44:16 0
15 *21:19 *48:18 0
16 *21:19 *55:14 0
17 *21:19 *98:10 0
18 *21:27 *33:12 0
19 *21:27 *51:6 0
20 *21:31 *54:14 0
21 *21:45 *230:A 0
22 *21:45 *33:12 0
23 *21:45 *51:19 0
24 *139:B *21:27 0
25 *139:B *21:31 0
*RES
1 *143:X *21:6 20.8446 
2 *21:6 *21:19 45.0058 
3 *21:19 *21:27 45.1809 
4 *21:27 *21:31 20.8446 
5 *21:31 *155:A 40.5356 
6 *21:19 *21:45 3.3475 
7 *21:45 *165:A 21.5656 
*END

*D_NET *22 0.000172614
*CONN
*I *156:A I *D sg13g2_buf_16
*I *144:X O *D sg13g2_buf_16
*CAP
1 *156:A 0
2 *144:X 0
3 *22:11 8.6307e-05
4 *22:6 8.6307e-05
5 *22:11 *34:14 0
*RES
1 *144:X *22:6 40 
2 *22:6 *22:11 1.0918 
3 *22:11 *156:A 40 
*END

*D_NET *23 0.00275821
*CONN
*I *157:A I *D sg13g2_buf_16
*I *145:X O *D sg13g2_buf_16
*CAP
1 *157:A 0.000188074
2 *145:X 0.000150769
3 *23:15 0.00122834
4 *23:6 0.00119103
5 *157:A *193:TE_B 0
6 *157:A *62:14 0
7 *23:6 *170:A 0
8 *23:6 *192:TE_B 0
9 *23:6 *52:15 0
10 *23:15 *147:A 0
11 *23:15 *170:A 0
12 *23:15 *188:TE_B 0
13 *23:15 *192:TE_B 0
14 *23:15 *193:TE_B 0
15 *23:15 *54:14 0
16 *23:15 *59:49 0
17 *23:15 *62:14 0
18 *23:15 *91:27 0
19 *23:15 *92:12 0
*RES
1 *145:X *23:6 21.4008 
2 *23:6 *23:15 9.6408 
3 *23:15 *157:A 21.7819 
*END

*D_NET *24 0.00665568
*CONN
*I *166:A I *D sg13g2_buf_16
*I *158:A I *D sg13g2_buf_16
*I *146:X O *D sg13g2_buf_16
*CAP
1 *166:A 5.41919e-05
2 *158:A 0
3 *146:X 9.17538e-05
4 *24:55 0.000381517
5 *24:51 0.00213016
6 *24:30 0.00186374
7 *24:21 6.09065e-05
8 *24:17 0.000990827
9 *24:6 0.00108258
10 *166:A *51:19 0
11 *24:17 *175:A 0
12 *24:17 *41:10 0
13 *24:17 *45:16 0
14 *24:17 *62:14 0
15 *24:17 *91:6 0
16 *24:30 *29:19 0
17 *24:30 *37:14 0
18 *24:51 *151:A 0
19 *24:51 *177:A 0
20 *24:51 *231:TE_B 0
21 *24:51 *233:A 0
22 *24:51 *28:6 0
23 *24:51 *28:15 0
24 *24:51 *37:14 0
25 *24:51 *38:8 0
26 *24:51 *45:16 0
27 *24:51 *67:6 0
28 *24:51 *67:13 0
29 *24:51 *100:28 0
30 *24:55 *44:16 0
31 *24:55 *48:18 0
32 *24:55 *51:19 0
*RES
1 *146:X *24:6 20.9682 
2 *24:6 *24:17 29.579 
3 *24:17 *24:21 20 
4 *24:21 *158:A 20 
5 *24:21 *24:30 20.5356 
6 *24:30 *24:51 37.9426 
7 *24:51 *24:55 22.8222 
8 *24:55 *166:A 40.5356 
*END

*D_NET *25 0.00118331
*CONN
*I *159:A I *D sg13g2_buf_16
*I *147:X O *D sg13g2_buf_16
*CAP
1 *159:A 0
2 *147:X 0.000143232
3 *25:15 0.000448422
4 *25:6 0.000591654
5 *25:6 *175:A 0
6 *25:6 *29:19 0
7 *25:15 *175:A 0
8 *25:15 *29:19 0
*RES
1 *147:X *25:6 21.4008 
2 *25:6 *25:15 24.0685 
3 *25:15 *159:A 40 
*END

*D_NET *26 0.001585
*CONN
*I *160:A I *D sg13g2_buf_16
*I *148:X O *D sg13g2_buf_16
*CAP
1 *160:A 0
2 *148:X 0.000146656
3 *26:17 0.000645845
4 *26:8 0.000792501
5 *26:8 *192:TE_B 0
6 *26:8 *92:12 0
7 *26:17 *145:A 0
8 *26:17 *192:TE_B 0
9 *26:17 *48:18 0
10 *26:17 *81:12 0
*RES
1 *148:X *26:8 21.6429 
2 *26:8 *26:17 26.1234 
3 *26:17 *160:A 40 
*END

*D_NET *27 0.00195379
*CONN
*I *167:A I *D sg13g2_buf_16
*I *161:A I *D sg13g2_buf_16
*I *149:X O *D sg13g2_buf_16
*CAP
1 *167:A 9.5409e-05
2 *161:A 0
3 *149:X 0
4 *27:29 0.000197828
5 *27:13 0.0001264
6 *27:11 0.000881485
7 *27:6 0.000652665
8 *167:A *201:A 0
9 *27:11 *202:A 0
10 *27:11 *29:19 0
11 *27:11 *34:14 0
12 *27:11 *64:26 0
13 *27:13 *202:A 0
14 *27:13 *64:26 0
15 *27:29 *199:A 0
*RES
1 *149:X *27:6 40 
2 *27:6 *27:11 7.2718 
3 *27:11 *27:13 1.0918 
4 *27:13 *161:A 40 
5 *27:11 *27:29 20.9832 
6 *27:29 *167:A 20.9682 
*END

*D_NET *28 0.00173705
*CONN
*I *162:A I *D sg13g2_buf_16
*I *150:X O *D sg13g2_buf_16
*CAP
1 *162:A 0
2 *150:X 0.000139004
3 *28:15 0.000729524
4 *28:6 0.000868527
5 *28:6 *233:A 0
6 *28:15 *151:A 0
7 *28:15 *172:A 0
8 *28:15 *233:A 0
9 *28:15 *66:61 0
10 *28:15 *92:12 0
11 *14:9 *28:15 0
12 *24:51 *28:6 0
13 *24:51 *28:15 0
*RES
1 *150:X *28:6 21.4008 
2 *28:6 *28:15 26.0461 
3 *28:15 *162:A 40 
*END

*D_NET *29 0.00190084
*CONN
*I *163:A I *D sg13g2_buf_16
*I *151:X O *D sg13g2_buf_16
*CAP
1 *163:A 0
2 *151:X 7.02835e-05
3 *29:19 0.000880134
4 *29:6 0.000950418
5 *29:19 *232:A 0
6 *29:19 *37:14 0
7 *29:19 *41:10 0
8 *29:19 *65:6 0
9 *29:19 *65:15 0
10 *24:30 *29:19 0
11 *25:6 *29:19 0
12 *25:15 *29:19 0
13 *27:11 *29:19 0
*RES
1 *151:X *29:6 20.8446 
2 *29:6 *29:19 28.4769 
3 *29:19 *163:A 40 
*END

*D_NET *30 0.00464509
*CONN
*I *168:A I *D sg13g2_buf_16
*I *164:A I *D sg13g2_buf_16
*I *152:X O *D sg13g2_buf_16
*CAP
1 *168:A 0
2 *164:A 0
3 *152:X 0
4 *30:33 0.001485
5 *30:21 0
6 *30:15 0.000753697
7 *30:13 0.00232255
8 *30:6 8.38521e-05
9 *30:33 *35:18 0
*RES
1 *152:X *30:6 40 
2 *30:6 *30:13 20.5974 
3 *30:13 *30:15 6.592 
4 *30:15 *30:21 40 
5 *30:21 *164:A 20 
6 *30:13 *30:33 32.4424 
7 *30:33 *168:A 40 
*END

*D_NET *31 0.00124731
*CONN
*I *177:A I *D sg13g2_buf_2
*I *153:X O *D sg13g2_buf_16
*CAP
1 *177:A 0.000623657
2 *153:X 0.000623657
3 *177:A *230:A 0
4 *177:A *32:8 0
5 *177:A *51:6 0
6 *177:A *51:19 0
7 *24:51 *177:A 0
*RES
1 *153:X *177:A 44.9246 
*END

*D_NET *32 0.00303391
*CONN
*I *225:A I *D sg13g2_inv_4
*I *154:X O *D sg13g2_buf_16
*CAP
1 *225:A 0.00108471
2 *154:X 0.000408298
3 *32:8 0.00149301
4 *225:A *43:14 0
5 *225:A *80:8 0
6 *177:A *32:8 0
7 *222:A *225:A 4.78853e-05
*RES
1 *154:X *32:8 43.5638 
2 *32:8 *225:A 48.8271 
*END

*D_NET *33 0.0106745
*CONN
*I *183:A I *D sg13g2_einvn_8
*I *178:A I *D sg13g2_buf_1
*I *155:X O *D sg13g2_buf_16
*CAP
1 *183:A 0
2 *178:A 0.000345158
3 *155:X 0.000993656
4 *33:27 0.00113998
5 *33:12 0.00247879
6 *178:A *47:16 0
7 *178:A *95:17 0.00103562
8 *178:A *98:10 0.000660867
9 *33:12 *210:A 0
10 *33:12 *229:A 0
11 *33:12 *44:10 0
12 *33:12 *97:10 0
13 *33:27 *192:TE_B 0
14 *33:27 *43:14 0
15 *33:27 *52:6 0
16 *33:27 *52:15 0
17 *33:27 *95:17 0.00331123
18 *33:27 *98:10 0.000709157
19 *136:B *33:12 0
20 *20:6 *33:27 0
21 *21:19 *33:12 0
22 *21:27 *33:12 0
23 *21:45 *33:12 0
*RES
1 *155:X *33:12 49.3627 
2 *33:12 *178:A 45.7886 
3 *33:12 *33:27 37.4791 
4 *33:27 *183:A 20 
*END

*D_NET *34 0.00372134
*CONN
*I *186:A I *D sg13g2_buf_2
*I *156:X O *D sg13g2_buf_16
*CAP
1 *186:A 0
2 *156:X 9.64905e-05
3 *34:14 0.00146605
4 *34:8 0.00156254
5 *34:14 *146:A 0
6 *34:14 *174:A 0.000596261
7 *34:14 *52:60 0
8 *34:14 *58:6 0
9 *34:14 *58:11 0
10 *22:11 *34:14 0
11 *27:11 *34:14 0
*RES
1 *156:X *34:8 40.9682 
2 *34:8 *34:14 36.3049 
3 *34:14 *186:A 20 
*END

*D_NET *35 0.00444917
*CONN
*I *226:A I *D sg13g2_inv_4
*I *157:X O *D sg13g2_buf_16
*CAP
1 *226:A 0
2 *157:X 0
3 *35:22 0
4 *35:18 0.00198959
5 *35:12 0.00222459
6 *35:6 0.000234996
7 *30:33 *35:18 0
*RES
1 *157:X *35:6 40 
2 *35:6 *35:12 42.266 
3 *35:12 *35:18 41.6506 
4 *35:18 *35:22 40 
5 *35:22 *226:A 20 
*END

*D_NET *36 0.00566315
*CONN
*I *193:A I *D sg13g2_einvn_4
*I *192:A I *D sg13g2_einvn_8
*I *158:X O *D sg13g2_buf_16
*CAP
1 *193:A 0
2 *192:A 0.0014352
3 *158:X 0.000587624
4 *36:18 0.00160817
5 *36:12 0.000332214
6 *36:8 0.000746868
7 *192:A *173:A 0.000404409
8 *192:A *174:A 0.00037204
9 *192:A *183:TE_B 0
10 *192:A *44:24 0.000176623
11 *192:A *52:60 0
12 *192:A *59:19 0
13 *36:8 *57:12 0
14 *36:8 *62:14 0
15 *36:12 *174:A 0
16 *36:12 *91:6 0
17 *236:A *192:A 0
18 *9:13 *192:A 0
19 *10:21 *36:18 0
*RES
1 *158:X *36:8 45.5414 
2 *36:8 *36:12 21.4008 
3 *36:12 *36:18 41.8334 
4 *36:18 *192:A 32.3348 
5 *36:12 *193:A 20 
*END

*D_NET *37 0.00492778
*CONN
*I *195:A I *D sg13g2_buf_2
*I *159:X O *D sg13g2_buf_16
*CAP
1 *195:A 0
2 *159:X 0.00013132
3 *37:14 0.000962569
4 *37:8 0.00109389
5 *37:8 *190:Z 0.000240455
6 *37:8 *83:12 0.000240455
7 *37:14 *83:12 0.00225909
8 *10:21 *37:14 0
9 *24:30 *37:14 0
10 *24:51 *37:14 0
11 *29:19 *37:14 0
*RES
1 *159:X *37:8 41.6171 
2 *37:8 *37:14 32.9986 
3 *37:14 *195:A 20 
*END

*D_NET *38 0.00319047
*CONN
*I *227:A I *D sg13g2_inv_4
*I *160:X O *D sg13g2_buf_16
*CAP
1 *227:A 0
2 *160:X 0.00118373
3 *38:8 0.00118373
4 *38:8 *230:Z 0
5 *38:8 *232:A 0.000823016
6 *38:8 *97:59 0
7 *24:51 *38:8 0
*RES
1 *160:X *38:8 31.9171 
2 *38:8 *227:A 20 
*END

*D_NET *39 0.00342613
*CONN
*I *202:A I *D sg13g2_einvn_4
*I *201:A I *D sg13g2_einvn_8
*I *161:X O *D sg13g2_buf_16
*CAP
1 *202:A 0.000557268
2 *201:A 0.000109413
3 *161:X 0.000509921
4 *39:12 0.0011766
5 *201:A *66:10 0
6 *202:A *149:A 0.000112506
7 *202:A *199:Z 0.000242355
8 *202:A *199:A 0.000718065
9 *202:A *202:TE_B 0
10 *202:A *41:10 0
11 *39:12 *199:A 0
12 *39:12 *64:26 0
13 *39:12 *66:23 0
14 *167:A *201:A 0
15 *27:11 *202:A 0
16 *27:13 *202:A 0
*RES
1 *161:X *39:12 44.8822 
2 *39:12 *201:A 40.9682 
3 *39:12 *202:A 47.0452 
*END

*D_NET *40 0.00119311
*CONN
*I *204:A I *D sg13g2_buf_2
*I *162:X O *D sg13g2_buf_16
*CAP
1 *204:A 0.000596557
2 *162:X 0.000596557
3 *204:A *233:Z 0
*RES
1 *162:X *204:A 46.077 
*END

*D_NET *41 0.00234224
*CONN
*I *228:A I *D sg13g2_inv_4
*I *163:X O *D sg13g2_buf_16
*CAP
1 *228:A 0.000178481
2 *163:X 0.000992637
3 *41:10 0.00117112
4 *228:A *62:8 0
5 *228:A *65:6 0
6 *228:A *66:47 0
7 *41:10 *199:A 0
8 *41:10 *62:14 0
9 *202:A *41:10 0
10 *24:17 *41:10 0
11 *29:19 *41:10 0
*RES
1 *163:X *41:10 49.2906 
2 *41:10 *228:A 41.6171 
*END

*D_NET *42 0.00246244
*CONN
*I *211:A I *D sg13g2_einvn_4
*I *205:A I *D sg13g2_buf_1
*I *176:A I *D sg13g2_inv_2
*I *164:X O *D sg13g2_buf_16
*CAP
1 *211:A 0
2 *205:A 0.00044005
3 *176:A 0
4 *164:X 0.000331006
5 *42:14 0.00072359
6 *42:10 0.000614546
7 *205:A *197:TE_B 0
8 *205:A *198:A 4.77425e-05
9 *205:A *70:10 0.000177342
10 *205:A *78:8 0
11 *205:A *78:18 0
12 *205:A *93:10 0
13 *42:10 *197:A 0
14 *42:10 *201:TE_B 0
15 *42:10 *64:26 0
16 *42:14 *201:TE_B 0
17 *42:14 *64:26 0
18 *42:14 *78:18 0.00012816
*RES
1 *164:X *42:10 43.2033 
2 *42:10 *42:14 22.8222 
3 *42:14 *176:A 20 
4 *42:14 *205:A 24.1303 
5 *42:10 *211:A 40 
*END

*D_NET *43 0.00847398
*CONN
*I *173:A I *D sg13g2_inv_4
*I *184:A I *D sg13g2_einvn_4
*I *165:X O *D sg13g2_buf_16
*CAP
1 *173:A 0.000612103
2 *184:A 0
3 *165:X 5.17261e-05
4 *43:20 0.00081952
5 *43:14 0.00261251
6 *43:8 0.00245682
7 *173:A *174:A 0.000307269
8 *173:A *190:Z 0
9 *173:A *190:A 8.03417e-05
10 *173:A *44:24 0.000161167
11 *173:A *59:19 0
12 *173:A *81:12 0.000242186
13 *43:14 *181:Z 0.000177272
14 *43:14 *184:TE_B 0
15 *43:14 *44:16 0.000403809
16 *43:14 *47:16 0.000144842
17 *43:14 *52:6 0
18 *43:14 *52:15 0
19 *43:14 *59:8 0
20 *43:20 *48:10 0
21 *43:20 *48:18 0
22 *43:20 *49:11 0
23 *43:20 *81:12 0
24 *192:A *173:A 0.000404409
25 *222:A *43:8 0
26 *225:A *43:14 0
27 *236:A *43:14 0
28 *3:13 *43:14 0
29 *6:9 *43:14 0
30 *13:9 *43:14 0
31 *19:15 *43:14 0
32 *33:27 *43:14 0
*RES
1 *165:X *43:8 40.5356 
2 *43:8 *43:14 46.0075 
3 *43:14 *43:20 41.8334 
4 *43:20 *184:A 20 
5 *43:20 *173:A 27.21 
*END

*D_NET *44 0.0111375
*CONN
*I *187:A I *D sg13g2_buf_1
*I *174:A I *D sg13g2_inv_8
*I *166:X O *D sg13g2_buf_16
*CAP
1 *187:A 0
2 *174:A 0.00102471
3 *166:X 8.80204e-05
4 *44:24 0.00130603
5 *44:16 0.00289571
6 *44:10 0.0027024
7 *174:A *190:Z 0
8 *174:A *91:6 0
9 *44:16 *170:A 0
10 *44:16 *184:TE_B 0.000403809
11 *44:16 *47:16 0
12 *44:16 *48:18 0
13 *44:16 *49:11 0
14 *44:16 *49:13 0
15 *44:16 *51:19 0
16 *44:16 *52:15 0
17 *44:16 *54:14 0.000144728
18 *44:16 *55:14 0
19 *44:16 *59:19 0
20 *44:24 *52:40 0
21 *44:24 *52:60 0
22 *44:24 *91:27 0.000554907
23 *173:A *174:A 0.000307269
24 *173:A *44:24 0.000161167
25 *192:A *174:A 0.00037204
26 *192:A *44:24 0.000176623
27 *20:15 *44:16 0
28 *21:19 *44:10 0
29 *21:19 *44:16 0
30 *24:55 *44:16 0
31 *33:12 *44:10 0
32 *34:14 *174:A 0.000596261
33 *36:12 *174:A 0
34 *43:14 *44:16 0.000403809
*RES
1 *166:X *44:10 40.8549 
2 *44:10 *44:16 42.3626 
3 *44:16 *44:24 43.7595 
4 *44:24 *174:A 30.8465 
5 *44:24 *187:A 20 
*END

*D_NET *45 0.00589956
*CONN
*I *175:A I *D sg13g2_inv_8
*I *196:A I *D sg13g2_buf_1
*I *167:X O *D sg13g2_buf_16
*CAP
1 *175:A 0.000786822
2 *196:A 0
3 *167:X 0.000104851
4 *45:16 0.00118777
5 *45:8 0.00207945
6 *175:A *147:A 0
7 *175:A *59:49 0
8 *175:A *62:14 0.000700753
9 *45:16 *152:A 0
10 *45:16 *199:A 0
11 *45:16 *210:A 0
12 *45:16 *62:14 0.00103992
13 *45:16 *63:12 0
14 *45:16 *72:17 0
15 *45:16 *96:20 0
16 *45:16 *96:33 0
17 *24:17 *175:A 0
18 *24:17 *45:16 0
19 *24:51 *45:16 0
20 *25:6 *175:A 0
21 *25:15 *175:A 0
*RES
1 *167:X *45:8 40.7519 
2 *45:8 *45:16 32.7617 
3 *45:16 *196:A 20 
4 *45:8 *175:A 47.5358 
*END

*D_NET *46 0.00191482
*CONN
*I *210:A I *D sg13g2_einvn_8
*I *168:X O *D sg13g2_buf_16
*CAP
1 *210:A 0.000957411
2 *168:X 0.000957411
3 *210:A *137:A 0
4 *210:A *206:Z 0
5 *210:A *73:14 0
6 *210:A *101:8 0
7 *18:8 *210:A 0
8 *33:12 *210:A 0
9 *45:16 *210:A 0
*RES
1 *168:X *210:A 48.8495 
*END

*D_NET *47 0.0118628
*CONN
*I *181:A I *D sg13g2_einvn_4
*I *178:X O *D sg13g2_buf_1
*CAP
1 *181:A 0
2 *178:X 0
3 *47:16 0.00127377
4 *47:6 0.00127377
5 *47:16 *55:14 0.00441224
6 *47:16 *59:8 0
7 *47:16 *59:19 0
8 *47:16 *76:47 0
9 *47:16 *95:17 0.00475821
10 *178:A *47:16 0
11 *43:14 *47:16 0.000144842
12 *44:16 *47:16 0
*RES
1 *178:X *47:6 40 
2 *47:6 *47:16 45.4101 
3 *47:16 *181:A 20 
*END

*D_NET *48 0.00570892
*CONN
*I *181:Z O *D sg13g2_einvn_4
*I *185:A I *D sg13g2_inv_1
*I *184:Z O *D sg13g2_einvn_4
*CAP
1 *181:Z 0.000110407
2 *185:A 0
3 *184:Z 0.000179606
4 *48:18 0.00221486
5 *48:10 0.00250487
6 *181:Z *59:19 0
7 *48:10 *49:11 0
8 *48:18 *49:11 0
9 *48:18 *49:13 0
10 *48:18 *51:19 0
11 *48:18 *81:12 0
12 *48:18 *87:20 0.000234224
13 *48:18 *90:38 0.000287672
14 *20:15 *48:18 0
15 *21:19 *48:18 0
16 *24:55 *48:18 0
17 *26:17 *48:18 0
18 *43:14 *181:Z 0.000177272
19 *43:20 *48:10 0
20 *43:20 *48:18 0
21 *44:16 *48:18 0
*RES
1 *184:Z *48:10 41.6583 
2 *48:10 *48:18 44.4728 
3 *48:18 *185:A 20 
4 *48:10 *181:Z 41.1845 
*END

*D_NET *49 0.00159592
*CONN
*I *141:A I *D sg13g2_buf_16
*I *169:A I *D sg13g2_buf_16
*I *236:X O *D sg13g2_buf_2
*CAP
1 *141:A 0
2 *169:A 9.45353e-05
3 *236:X 0
4 *49:22 0.00028093
5 *49:17 0.000186395
6 *49:13 0.000100782
7 *49:11 0.000517029
8 *49:6 0.000416246
9 *169:A *192:TE_B 0
10 *49:22 *192:TE_B 0
11 *20:15 *169:A 0
12 *20:15 *49:22 0
13 *43:20 *49:11 0
14 *44:16 *49:11 0
15 *44:16 *49:13 0
16 *48:10 *49:11 0
17 *48:18 *49:11 0
18 *48:18 *49:13 0
*RES
1 *236:X *49:6 40 
2 *49:6 *49:11 4.5526 
3 *49:11 *49:13 1.0918 
4 *49:13 *49:17 20 
5 *49:17 *49:22 1.5141 
6 *49:22 *169:A 20.8549 
7 *49:11 *141:A 40 
*END

*D_NET *50 0.000431174
*CONN
*I *142:A I *D sg13g2_buf_16
*I *169:X O *D sg13g2_buf_16
*CAP
1 *142:A 0.000215587
2 *169:X 0.000215587
3 *19:15 *142:A 0
*RES
1 *169:X *142:A 42.1012 
*END

*D_NET *51 0.00143371
*CONN
*I *143:A I *D sg13g2_buf_16
*I *177:X O *D sg13g2_buf_2
*CAP
1 *143:A 9.41691e-05
2 *177:X 0.000158932
3 *51:19 0.000557923
4 *51:6 0.000622686
5 *166:A *51:19 0
6 *177:A *51:6 0
7 *177:A *51:19 0
8 *21:27 *51:6 0
9 *21:45 *51:19 0
10 *24:55 *51:19 0
11 *44:16 *51:19 0
12 *48:18 *51:19 0
*RES
1 *177:X *51:6 21.4008 
2 *51:6 *51:19 43.8831 
3 *51:19 *143:A 20.8549 
*END

*D_NET *52 0.00619011
*CONN
*I *144:A I *D sg13g2_buf_16
*I *179:Z O *D sg13g2_einvn_4
*I *170:A I *D sg13g2_buf_16
*I *183:Z O *D sg13g2_einvn_8
*CAP
1 *144:A 0.000164302
2 *179:Z 0
3 *170:A 0.00011095
4 *183:Z 9.83647e-05
5 *52:60 0.00193509
6 *52:40 0.00209107
7 *52:31 0.000320277
8 *52:15 0.000741322
9 *52:6 0.000728737
10 *170:A *54:14 0
11 *52:15 *184:TE_B 0
12 *52:15 *192:TE_B 0
13 *52:15 *55:14 0
14 *52:40 *54:14 0
15 *52:40 *81:12 0
16 *52:60 *146:A 0
17 *52:60 *58:6 0
18 *52:60 *58:11 0
19 *52:60 *81:12 0
20 *192:A *52:60 0
21 *9:13 *52:60 0
22 *23:6 *170:A 0
23 *23:6 *52:15 0
24 *23:15 *170:A 0
25 *33:27 *52:6 0
26 *33:27 *52:15 0
27 *34:14 *52:60 0
28 *43:14 *52:6 0
29 *43:14 *52:15 0
30 *44:16 *170:A 0
31 *44:16 *52:15 0
32 *44:24 *52:40 0
33 *44:24 *52:60 0
*RES
1 *183:Z *52:6 20.9682 
2 *52:6 *52:15 6.18 
3 *52:15 *170:A 21.1845 
4 *170:A *52:31 40 
5 *52:31 *52:40 3.6153 
6 *52:40 *179:Z 40 
7 *52:40 *52:60 36.4182 
8 *52:60 *144:A 22.0291 
*END

*D_NET *53 0.000349444
*CONN
*I *145:A I *D sg13g2_buf_16
*I *170:X O *D sg13g2_buf_16
*CAP
1 *145:A 0.000174722
2 *170:X 0.000174722
3 *26:17 *145:A 0
*RES
1 *170:X *145:A 41.7201 
*END

*D_NET *54 0.00618018
*CONN
*I *179:TE_B I *D sg13g2_einvn_4
*I *180:Y O *D sg13g2_inv_1
*CAP
1 *179:TE_B 0
2 *180:Y 0.000138254
3 *54:14 0.00169949
4 *54:8 0.00183775
5 *54:8 *180:A 0.000240492
6 *54:8 *233:Z 0.000208572
7 *54:14 *59:19 0
8 *54:14 *91:10 0
9 *54:14 *91:27 0.000144771
10 *54:14 *92:18 0.000234726
11 *54:14 *97:55 0
12 *54:14 *99:8 0.000922958
13 *54:14 *100:28 0.00060844
14 *170:A *54:14 0
15 *21:31 *54:14 0
16 *23:15 *54:14 0
17 *44:16 *54:14 0.000144728
18 *52:40 *54:14 0
*RES
1 *180:Y *54:8 41.6171 
2 *54:8 *54:14 38.2207 
3 *54:14 *179:TE_B 20 
*END

*D_NET *55 0.00829996
*CONN
*I *181:TE_B I *D sg13g2_einvn_4
*I *182:Y O *D sg13g2_inv_1
*CAP
1 *181:TE_B 0