*SPEF "ieee 1481-1999"
*DESIGN "heichips25_internal"
*DATE "01:15:01 Monday February 23, 2026"
*VENDOR "The OpenROAD Project"
*PROGRAM "OpenROAD"
*VERSION "dfc4f595dfb2e1c346492ff1f0274abb28725acf"
*DESIGN_FLOW "NAME_SCOPE LOCAL" "PIN_CAP NONE"
*DIVIDER /
*DELIMITER :
*BUS_DELIMITER []
*T_UNIT 1 NS
*C_UNIT 1 PF
*R_UNIT 1 OHM
*L_UNIT 1 HENRY

*NAME_MAP
*3 analog_adc
*4 analog_pin0
*5 analog_pin1
*6 clk
*7 ena
*8 rst_n
*9 ui_in[0]
*10 ui_in[1]
*11 ui_in[2]
*12 ui_in[3]
*13 ui_in[4]
*14 ui_in[5]
*15 ui_in[6]
*16 ui_in[7]
*17 uio_in[0]
*18 uio_in[1]
*19 uio_in[2]
*20 uio_in[3]
*21 uio_in[4]
*22 uio_in[5]
*23 uio_in[6]
*24 uio_in[7]
*25 net
*26 net47
*27 net48
*28 net49
*29 net50
*30 net51
*31 net52
*32 net53
*33 uio_out[0]
*34 uio_out[1]
*35 uio_out[2]
*36 uio_out[3]
*37 uio_out[4]
*38 uio_out[5]
*39 uio_out[6]
*40 uio_out[7]
*41 net54
*42 net55
*43 net56
*44 net57
*45 net58
*46 net59
*47 net60
*48 net61
*51 _000_
*52 _001_
*53 _002_
*54 _003_
*55 _004_
*56 _005_
*57 _006_
*58 _007_
*59 _008_
*60 _009_
*61 _010_
*62 _011_
*63 _012_
*64 _013_
*65 _014_
*66 _015_
*67 _016_
*68 _017_
*69 _018_
*70 _019_
*71 _020_
*72 _021_
*73 _022_
*74 _023_
*75 _024_
*76 _025_
*77 _026_
*78 _027_
*79 _028_
*80 _029_
*81 _030_
*82 _031_
*83 _032_
*84 _033_
*85 _034_
*86 _035_
*87 _036_
*88 _037_
*89 _038_
*90 _039_
*91 _040_
*92 _041_
*93 _042_
*94 _043_
*95 _044_
*96 _045_
*97 _046_
*98 _047_
*99 _048_
*100 _049_
*101 _050_
*102 _051_
*103 _052_
*104 _053_
*105 _054_
*106 _055_
*107 _056_
*108 _057_
*109 _058_
*110 _059_
*111 _060_
*112 _061_
*113 _062_
*114 _063_
*115 _064_
*116 _065_
*117 _066_
*118 _067_
*119 _068_
*120 _069_
*121 _070_
*122 _071_
*123 _072_
*124 _073_
*125 _074_
*126 _075_
*127 _076_
*128 _077_
*129 _078_
*130 _079_
*131 _080_
*132 _081_
*133 _082_
*134 _083_
*135 _084_
*136 _085_
*137 _086_
*138 _087_
*139 _088_
*140 _089_
*141 _090_
*142 _091_
*143 _092_
*144 _093_
*145 _094_
*146 _095_
*147 _096_
*148 _097_
*149 _098_
*150 _099_
*151 _100_
*152 _101_
*153 _102_
*154 _103_
*155 _104_
*156 _105_
*157 _106_
*158 _107_
*159 _108_
*160 _109_
*161 _110_
*162 _111_
*163 _112_
*164 _113_
*165 _114_
*166 _115_
*167 _116_
*168 _117_
*169 _118_
*170 _119_
*171 _120_
*172 _121_
*173 _122_
*174 _123_
*175 _124_
*176 _125_
*177 _126_
*178 _127_
*179 adc_data\[0\]
*180 adc_data\[1\]
*181 adc_data\[2\]
*182 adc_data\[3\]
*183 adc_data\[4\]
*184 adc_data\[5\]
*185 adc_data\[6\]
*186 adc_data\[7\]
*187 adc_ready
*188 clk0_out
*189 clk1_out
*190 clk2_out
*191 clk_delayed
*192 clk_regs
*193 clknet_0_clk
*194 clknet_0_clk_regs
*195 clknet_1_0__leaf_clk
*196 clknet_1_1__leaf_clk
*197 clknet_4_0_0_clk_regs
*198 clknet_4_10_0_clk_regs
*199 clknet_4_11_0_clk_regs
*200 clknet_4_12_0_clk_regs
*201 clknet_4_13_0_clk_regs
*202 clknet_4_14_0_clk_regs
*203 clknet_4_15_0_clk_regs
*204 clknet_4_1_0_clk_regs
*205 clknet_4_2_0_clk_regs
*206 clknet_4_3_0_clk_regs
*207 clknet_4_4_0_clk_regs
*208 clknet_4_5_0_clk_regs
*209 clknet_4_6_0_clk_regs
*210 clknet_4_7_0_clk_regs
*211 clknet_4_8_0_clk_regs
*212 clknet_4_9_0_clk_regs
*213 data\[0\]
*214 data\[10\]
*215 data\[11\]
*216 data\[12\]
*217 data\[13\]
*218 data\[14\]
*219 data\[15\]
*220 data\[16\]
*221 data\[17\]
*222 data\[18\]
*223 data\[19\]
*224 data\[1\]
*225 data\[20\]
*226 data\[21\]
*227 data\[22\]
*228 data\[23\]
*229 data\[24\]
*230 data\[25\]
*231 data\[26\]
*232 data\[27\]
*233 data\[28\]
*234 data\[29\]
*235 data\[2\]
*236 data\[30\]
*237 data\[31\]
*238 data\[32\]
*239 data\[33\]
*240 data\[34\]
*241 data\[35\]
*242 data\[36\]
*243 data\[37\]
*244 data\[38\]
*245 data\[39\]
*246 data\[3\]
*247 data\[40\]
*248 data\[41\]
*249 data\[42\]
*250 data\[43\]
*251 data\[44\]
*252 data\[45\]
*253 data\[46\]
*254 data\[47\]
*255 data\[48\]
*256 data\[49\]
*257 data\[4\]
*258 data\[50\]
*259 data\[51\]
*260 data\[52\]
*261 data\[53\]
*262 data\[54\]
*263 data\[55\]
*264 data\[56\]
*265 data\[57\]
*266 data\[58\]
*267 data\[59\]
*268 data\[5\]
*269 data\[60\]
*270 data\[61\]
*271 data\[62\]
*272 data\[63\]
*273 data\[64\]
*274 data\[65\]
*275 data\[66\]
*276 data\[67\]
*277 data\[68\]
*278 data\[69\]
*279 data\[6\]
*280 data\[70\]
*281 data\[71\]
*282 data\[72\]
*283 data\[73\]
*284 data\[74\]
*285 data\[75\]
*286 data\[76\]
*287 data\[77\]
*288 data\[78\]
*289 data\[79\]
*290 data\[7\]
*291 data\[80\]
*292 data\[81\]
*293 data\[82\]
*294 data\[83\]
*295 data\[84\]
*296 data\[85\]
*297 data\[8\]
*298 data\[9\]
*299 delaynet_0_clk
*300 net1
*301 net10
*302 net11
*303 net12
*304 net13
*305 net14
*306 net15
*307 net16
*308 net17
*309 net18
*310 net19
*311 net2
*312 net20
*313 net21
*314 net22
*315 net23
*316 net24
*317 net25
*318 net26
*319 net27
*320 net28
*321 net29
*322 net3
*323 net30
*324 net31
*325 net32
*326 net33
*327 net34
*328 net35
*329 net36
*330 net37
*331 net38
*332 net39
*333 net4
*334 net40
*335 net41
*336 net42
*337 net43
*338 net44
*339 net45
*340 net46
*341 net5
*342 net6
*343 net7
*344 net8
*345 net9
*346 osc_out
*347 stable
*348 u_custom_cells\.u_latch0\.D
*349 u_custom_cells\.u_latch0\.Q
*350 u_shift_reg\.bit_count\[0\]
*351 u_shift_reg\.bit_count\[1\]
*352 u_shift_reg\.bit_count\[2\]
*353 u_shift_reg\.bit_count\[3\]
*354 u_shift_reg\.bit_count\[4\]
*355 u_shift_reg\.bit_count\[5\]
*356 u_shift_reg\.bit_count\[6\]
*357 u_shift_reg\.locked
*358 ANTENNA_1
*359 FILLER_0_0
*360 FILLER_0_105
*361 FILLER_0_112
*362 FILLER_0_119
*363 FILLER_0_126
*364 FILLER_0_133
*365 FILLER_0_14
*366 FILLER_0_140
*367 FILLER_0_147
*368 FILLER_0_154
*369 FILLER_0_161
*370 FILLER_0_168
*371 FILLER_0_175
*372 FILLER_0_182
*373 FILLER_0_189
*374 FILLER_0_196
*375 FILLER_0_203
*376 FILLER_0_21
*377 FILLER_0_210
*378 FILLER_0_217
*379 FILLER_0_224
*380 FILLER_0_231
*381 FILLER_0_238
*382 FILLER_0_245
*383 FILLER_0_252
*384 FILLER_0_259
*385 FILLER_0_266
*386 FILLER_0_270
*387 FILLER_0_28
*388 FILLER_0_281
*389 FILLER_0_288
*390 FILLER_0_316
*391 FILLER_0_323
*392 FILLER_0_337
*393 FILLER_0_344
*394 FILLER_0_35
*395 FILLER_0_351
*396 FILLER_0_355
*397 FILLER_0_366
*398 FILLER_0_373
*399 FILLER_0_380
*400 FILLER_0_387
*401 FILLER_0_389
*402 FILLER_0_400
*403 FILLER_0_407
*404 FILLER_0_411
*405 FILLER_0_42
*406 FILLER_0_439
*407 FILLER_0_446
*408 FILLER_0_480
*409 FILLER_0_49
*410 FILLER_0_518
*411 FILLER_0_525
*412 FILLER_0_532
*413 FILLER_0_539
*414 FILLER_0_546
*415 FILLER_0_553
*416 FILLER_0_56
*417 FILLER_0_560
*418 FILLER_0_567
*419 FILLER_0_574
*420 FILLER_0_581
*421 FILLER_0_588
*422 FILLER_0_595
*423 FILLER_0_602
*424 FILLER_0_609
*425 FILLER_0_616
*426 FILLER_0_623
*427 FILLER_0_63
*428 FILLER_0_630
*429 FILLER_0_637
*430 FILLER_0_644
*431 FILLER_0_651
*432 FILLER_0_658
*433 FILLER_0_665
*434 FILLER_0_672
*435 FILLER_0_679
*436 FILLER_0_686
*437 FILLER_0_693
*438 FILLER_0_7
*439 FILLER_0_70
*440 FILLER_0_700
*441 FILLER_0_707
*442 FILLER_0_714
*443 FILLER_0_721
*444 FILLER_0_728
*445 FILLER_0_735
*446 FILLER_0_742
*447 FILLER_0_749
*448 FILLER_0_756
*449 FILLER_0_763
*450 FILLER_0_77
*451 FILLER_0_770
*452 FILLER_0_777
*453 FILLER_0_784
*454 FILLER_0_791
*455 FILLER_0_798
*456 FILLER_0_805
*457 FILLER_0_812
*458 FILLER_0_819
*459 FILLER_0_826
*460 FILLER_0_833
*461 FILLER_0_84
*462 FILLER_0_91
*463 FILLER_0_98
*464 FILLER_10_11
*465 FILLER_10_18
*466 FILLER_10_25
*467 FILLER_10_32
*468 FILLER_10_39
*469 FILLER_10_4
*470 FILLER_10_46
*471 FILLER_10_53
*472 FILLER_10_55
*473 FILLER_10_765
*474 FILLER_10_772
*475 FILLER_10_779
*476 FILLER_10_786
*477 FILLER_10_793
*478 FILLER_10_800
*479 FILLER_10_807
*480 FILLER_10_814
*481 FILLER_10_821
*482 FILLER_10_828
*483 FILLER_11_11
*484 FILLER_11_18
*485 FILLER_11_25
*486 FILLER_11_4
*487 FILLER_11_765
*488 FILLER_11_772
*489 FILLER_11_779
*490 FILLER_11_786
*491 FILLER_11_793
*492 FILLER_11_800
*493 FILLER_11_807
*494 FILLER_11_814
*495 FILLER_11_821
*496 FILLER_11_828
*497 FILLER_12_11
*498 FILLER_12_15
*499 FILLER_12_27
*500 FILLER_12_4
*501 FILLER_12_44
*502 FILLER_12_51
*503 FILLER_12_55
*504 FILLER_12_765
*505 FILLER_12_772
*506 FILLER_12_779
*507 FILLER_12_786
*508 FILLER_12_793
*509 FILLER_12_800
*510 FILLER_12_807
*511 FILLER_12_814
*512 FILLER_12_821
*513 FILLER_12_828
*514 FILLER_13_11
*515 FILLER_13_18
*516 FILLER_13_4
*517 FILLER_13_46
*518 FILLER_13_53
*519 FILLER_13_55
*520 FILLER_13_765
*521 FILLER_13_772
*522 FILLER_13_779
*523 FILLER_13_786
*524 FILLER_13_793
*525 FILLER_13_800
*526 FILLER_13_807
*527 FILLER_13_814
*528 FILLER_13_821
*529 FILLER_13_828
*530 FILLER_14_11
*531 FILLER_14_18
*532 FILLER_14_4
*533 FILLER_14_765
*534 FILLER_14_772
*535 FILLER_14_779
*536 FILLER_14_786
*537 FILLER_14_793
*538 FILLER_14_800
*539 FILLER_14_807
*540 FILLER_14_814
*541 FILLER_14_821
*542 FILLER_14_828
*543 FILLER_15_18
*544 FILLER_15_25
*545 FILLER_15_29
*546 FILLER_15_40
*547 FILLER_15_47
*548 FILLER_15_54
*549 FILLER_15_765
*550 FILLER_15_772
*551 FILLER_15_779
*552 FILLER_15_786
*553 FILLER_15_793
*554 FILLER_15_800
*555 FILLER_15_807
*556 FILLER_15_814
*557 FILLER_15_821
*558 FILLER_15_828
*559 FILLER_16_0
*560 FILLER_16_765
*561 FILLER_16_772
*562 FILLER_16_779
*563 FILLER_16_786
*564 FILLER_16_793
*565 FILLER_16_800
*566 FILLER_16_807
*567 FILLER_16_814
*568 FILLER_16_821
*569 FILLER_16_828
*570 FILLER_17_17
*571 FILLER_17_24
*572 FILLER_17_28
*573 FILLER_17_4
*574 FILLER_17_40
*575 FILLER_17_47
*576 FILLER_17_54
*577 FILLER_17_6
*578 FILLER_17_765
*579 FILLER_17_772
*580 FILLER_17_779
*581 FILLER_17_786
*582 FILLER_17_793
*583 FILLER_17_800
*584 FILLER_17_807
*585 FILLER_17_814
*586 FILLER_17_821
*587 FILLER_17_828
*588 FILLER_18_0
*589 FILLER_18_765
*590 FILLER_18_772
*591 FILLER_18_779
*592 FILLER_18_786
*593 FILLER_18_793
*594 FILLER_18_800
*595 FILLER_18_807
*596 FILLER_18_814
*597 FILLER_18_821
*598 FILLER_18_828
*599 FILLER_19_19
*600 FILLER_19_26
*601 FILLER_19_33
*602 FILLER_19_47
*603 FILLER_19_54
*604 FILLER_19_765
*605 FILLER_19_772
*606 FILLER_19_779
*607 FILLER_19_786
*608 FILLER_19_793
*609 FILLER_19_8
*610 FILLER_19_800
*611 FILLER_19_807
*612 FILLER_19_814
*613 FILLER_19_821
*614 FILLER_19_828
*615 FILLER_1_0
*616 FILLER_1_105
*617 FILLER_1_112
*618 FILLER_1_119
*619 FILLER_1_126
*620 FILLER_1_133
*621 FILLER_1_14
*622 FILLER_1_140
*623 FILLER_1_147
*624 FILLER_1_154
*625 FILLER_1_161
*626 FILLER_1_168
*627 FILLER_1_175
*628 FILLER_1_182
*629 FILLER_1_189
*630 FILLER_1_196
*631 FILLER_1_203
*632 FILLER_1_21
*633 FILLER_1_215
*634 FILLER_1_222
*635 FILLER_1_229
*636 FILLER_1_236
*637 FILLER_1_253
*638 FILLER_1_260
*639 FILLER_1_267
*640 FILLER_1_271
*641 FILLER_1_28
*642 FILLER_1_300
*643 FILLER_1_35
*644 FILLER_1_356
*645 FILLER_1_384
*646 FILLER_1_413
*647 FILLER_1_417
*648 FILLER_1_42
*649 FILLER_1_456
*650 FILLER_1_49
*651 FILLER_1_490
*652 FILLER_1_497
*653 FILLER_1_525
*654 FILLER_1_532
*655 FILLER_1_539
*656 FILLER_1_546
*657 FILLER_1_553
*658 FILLER_1_56
*659 FILLER_1_560
*660 FILLER_1_567
*661 FILLER_1_574
*662 FILLER_1_581
*663 FILLER_1_588
*664 FILLER_1_595
*665 FILLER_1_602
*666 FILLER_1_609
*667 FILLER_1_616
*668 FILLER_1_623
*669 FILLER_1_63
*670 FILLER_1_630
*671 FILLER_1_637
*672 FILLER_1_644
*673 FILLER_1_651
*674 FILLER_1_658
*675 FILLER_1_665
*676 FILLER_1_672
*677 FILLER_1_679
*678 FILLER_1_686
*679 FILLER_1_693
*680 FILLER_1_7
*681 FILLER_1_70
*682 FILLER_1_700
*683 FILLER_1_707
*684 FILLER_1_714
*685 FILLER_1_721
*686 FILLER_1_728
*687 FILLER_1_735
*688 FILLER_1_742
*689 FILLER_1_749
*690 FILLER_1_756
*691 FILLER_1_763
*692 FILLER_1_77
*693 FILLER_1_770
*694 FILLER_1_777
*695 FILLER_1_784
*696 FILLER_1_791
*697 FILLER_1_798
*698 FILLER_1_805
*699 FILLER_1_812
*700 FILLER_1_819
*701 FILLER_1_826
*702 FILLER_1_833
*703 FILLER_1_84
*704 FILLER_1_91
*705 FILLER_1_98
*706 FILLER_20_0
*707 FILLER_20_765
*708 FILLER_20_772
*709 FILLER_20_779
*710 FILLER_20_786
*711 FILLER_20_793
*712 FILLER_20_800
*713 FILLER_20_817
*714 FILLER_20_824
*715 FILLER_20_831
*716 FILLER_21_11
*717 FILLER_21_15
*718 FILLER_21_26
*719 FILLER_21_31
*720 FILLER_21_38
*721 FILLER_21_4
*722 FILLER_21_45
*723 FILLER_21_52
*724 FILLER_21_765
*725 FILLER_21_772
*726 FILLER_21_779
*727 FILLER_21_786
*728 FILLER_21_793
*729 FILLER_21_800
*730 FILLER_21_807
*731 FILLER_22_11
*732 FILLER_22_15
*733 FILLER_22_4
*734 FILLER_22_48
*735 FILLER_22_55
*736 FILLER_22_765
*737 FILLER_22_772
*738 FILLER_22_779
*739 FILLER_22_786
*740 FILLER_22_793
*741 FILLER_22_800
*742 FILLER_22_807
*743 FILLER_22_814
*744 FILLER_22_821
*745 FILLER_22_828
*746 FILLER_23_11
*747 FILLER_23_4
*748 FILLER_23_765
*749 FILLER_23_772
*750 FILLER_23_779
*751 FILLER_23_786
*752 FILLER_23_793
*753 FILLER_23_800
*754 FILLER_23_807
*755 FILLER_23_814
*756 FILLER_23_821
*757 FILLER_23_828
*758 FILLER_24_11
*759 FILLER_24_18
*760 FILLER_24_22
*761 FILLER_24_4
*762 FILLER_24_41
*763 FILLER_24_48
*764 FILLER_24_55
*765 FILLER_24_765
*766 FILLER_24_772
*767 FILLER_24_779
*768 FILLER_24_786
*769 FILLER_24_793
*770 FILLER_24_800
*771 FILLER_24_807
*772 FILLER_24_814
*773 FILLER_24_821
*774 FILLER_24_828
*775 FILLER_25_1025
*776 FILLER_25_11
*777 FILLER_25_18
*778 FILLER_25_25
*779 FILLER_25_4
*780 FILLER_25_765
*781 FILLER_25_772
*782 FILLER_25_779
*783 FILLER_25_786
*784 FILLER_25_793
*785 FILLER_25_800
*786 FILLER_25_807
*787 FILLER_25_814
*788 FILLER_25_821
*789 FILLER_25_828
*790 FILLER_25_835
*791 FILLER_25_842
*792 FILLER_25_849
*793 FILLER_25_856
*794 FILLER_25_863
*795 FILLER_25_870
*796 FILLER_25_877
*797 FILLER_25_884
*798 FILLER_25_891
*799 FILLER_25_898
*800 FILLER_25_905
*801 FILLER_25_912
*802 FILLER_25_919
*803 FILLER_25_926
*804 FILLER_25_933
*805 FILLER_25_940
*806 FILLER_25_947
*807 FILLER_25_954
*808 FILLER_25_961
*809 FILLER_25_968
*810 FILLER_25_975
*811 FILLER_25_982
*812 FILLER_25_989
*813 FILLER_25_996
*814 FILLER_26_1001
*815 FILLER_26_1008
*816 FILLER_26_1015
*817 FILLER_26_1022
*818 FILLER_26_11
*819 FILLER_26_18
*820 FILLER_26_22
*821 FILLER_26_4
*822 FILLER_26_51
*823 FILLER_26_55
*824 FILLER_26_765
*825 FILLER_26_772
*826 FILLER_26_779
*827 FILLER_26_786
*828 FILLER_26_793
*829 FILLER_26_800
*830 FILLER_26_807
*831 FILLER_26_814
*832 FILLER_26_821
*833 FILLER_26_828
*834 FILLER_26_835
*835 FILLER_26_847
*836 FILLER_26_875
*837 FILLER_26_882
*838 FILLER_26_889
*839 FILLER_26_896
*840 FILLER_26_903
*841 FILLER_26_910
*842 FILLER_26_917
*843 FILLER_26_924
*844 FILLER_26_931
*845 FILLER_26_938
*846 FILLER_26_945
*847 FILLER_26_952
*848 FILLER_26_959
*849 FILLER_26_966
*850 FILLER_26_973
*851 FILLER_26_980
*852 FILLER_26_987
*853 FILLER_26_994
*854 FILLER_27_0
*855 FILLER_27_1003
*856 FILLER_27_1010
*857 FILLER_27_1017
*858 FILLER_27_1024
*859 FILLER_27_1028
*860 FILLER_27_14
*861 FILLER_27_21
*862 FILLER_27_35
*863 FILLER_27_42
*864 FILLER_27_49
*865 FILLER_27_7
*866 FILLER_27_765
*867 FILLER_27_772
*868 FILLER_27_779
*869 FILLER_27_786
*870 FILLER_27_793
*871 FILLER_27_800
*872 FILLER_27_807
*873 FILLER_27_814
*874 FILLER_27_821
*875 FILLER_27_828
*876 FILLER_27_835
*877 FILLER_27_842
*878 FILLER_27_849
*879 FILLER_27_856
*880 FILLER_27_863
*881 FILLER_27_870
*882 FILLER_27_877
*883 FILLER_27_884
*884 FILLER_27_891
*885 FILLER_27_898
*886 FILLER_27_905
*887 FILLER_27_912
*888 FILLER_27_919
*889 FILLER_27_926
*890 FILLER_27_933
*891 FILLER_27_940
*892 FILLER_27_947
*893 FILLER_27_954
*894 FILLER_27_961
*895 FILLER_27_968
*896 FILLER_27_975
*897 FILLER_27_982
*898 FILLER_27_989
*899 FILLER_27_996
*900 FILLER_28_11
*901 FILLER_28_18
*902 FILLER_28_25
*903 FILLER_28_4
*904 FILLER_28_765
*905 FILLER_28_772
*906 FILLER_28_779
*907 FILLER_28_786
*908 FILLER_28_793
*909 FILLER_28_800
*910 FILLER_28_807
*911 FILLER_28_814
*912 FILLER_28_821
*913 FILLER_28_828
*914 FILLER_28_835
*915 FILLER_28_842
*916 FILLER_28_849
*917 FILLER_28_856
*918 FILLER_28_860
*919 FILLER_29_11
*920 FILLER_29_18
*921 FILLER_29_25
*922 FILLER_29_4
*923 FILLER_29_47
*924 FILLER_29_54
*925 FILLER_29_765
*926 FILLER_29_772
*927 FILLER_29_779
*928 FILLER_29_786
*929 FILLER_29_793
*930 FILLER_29_800
*931 FILLER_29_807
*932 FILLER_29_814
*933 FILLER_29_821
*934 FILLER_29_828
*935 FILLER_29_835
*936 FILLER_29_842
*937 FILLER_29_849
*938 FILLER_29_856
*939 FILLER_29_860
*940 FILLER_2_102
*941 FILLER_2_109
*942 FILLER_2_11
*943 FILLER_2_116
*944 FILLER_2_123
*945 FILLER_2_130
*946 FILLER_2_137
*947 FILLER_2_144
*948 FILLER_2_151
*949 FILLER_2_158
*950 FILLER_2_165
*951 FILLER_2_172
*952 FILLER_2_179
*953 FILLER_2_18
*954 FILLER_2_186
*955 FILLER_2_193
*956 FILLER_2_200
*957 FILLER_2_204
*958 FILLER_2_232
*959 FILLER_2_236
*960 FILLER_2_25
*961 FILLER_2_265
*962 FILLER_2_272
*963 FILLER_2_279
*964 FILLER_2_283
*965 FILLER_2_294
*966 FILLER_2_301
*967 FILLER_2_305
*968 FILLER_2_316
*969 FILLER_2_32
*970 FILLER_2_323
*971 FILLER_2_327
*972 FILLER_2_333
*973 FILLER_2_340
*974 FILLER_2_342
*975 FILLER_2_370
*976 FILLER_2_374
*977 FILLER_2_39
*978 FILLER_2_4
*979 FILLER_2_402
*980 FILLER_2_406
*981 FILLER_2_417
*982 FILLER_2_424
*983 FILLER_2_431
*984 FILLER_2_438
*985 FILLER_2_445
*986 FILLER_2_46
*987 FILLER_2_466
*988 FILLER_2_473
*989 FILLER_2_480
*990 FILLER_2_487
*991 FILLER_2_489
*992 FILLER_2_500
*993 FILLER_2_507
*994 FILLER_2_514
*995 FILLER_2_521
*996 FILLER_2_528
*997 FILLER_2_53
*998 FILLER_2_535
*999 FILLER_2_542
*1000 FILLER_2_549
*1001 FILLER_2_556
*1002 FILLER_2_563
*1003 FILLER_2_570
*1004 FILLER_2_577
*1005 FILLER_2_584
*1006 FILLER_2_591
*1007 FILLER_2_598
*1008 FILLER_2_60
*1009 FILLER_2_605
*1010 FILLER_2_612
*1011 FILLER_2_619
*1012 FILLER_2_626
*1013 FILLER_2_633
*1014 FILLER_2_640
*1015 FILLER_2_647
*1016 FILLER_2_654
*1017 FILLER_2_661
*1018 FILLER_2_668
*1019 FILLER_2_67
*1020 FILLER_2_675
*1021 FILLER_2_682
*1022 FILLER_2_689
*1023 FILLER_2_696
*1024 FILLER_2_703
*1025 FILLER_2_710
*1026 FILLER_2_717
*1027 FILLER_2_724
*1028 FILLER_2_731
*1029 FILLER_2_738
*1030 FILLER_2_74
*1031 FILLER_2_745
*1032 FILLER_2_752
*1033 FILLER_2_759
*1034 FILLER_2_766
*1035 FILLER_2_773
*1036 FILLER_2_780
*1037 FILLER_2_787
*1038 FILLER_2_794
*1039 FILLER_2_801
*1040 FILLER_2_808
*1041 FILLER_2_81
*1042 FILLER_2_815
*1043 FILLER_2_822
*1044 FILLER_2_829
*1045 FILLER_2_833
*1046 FILLER_2_88
*1047 FILLER_2_95
*1048 FILLER_30_11
*1049 FILLER_30_18
*1050 FILLER_30_25
*1051 FILLER_30_4
*1052 FILLER_30_765
*1053 FILLER_30_772
*1054 FILLER_30_779
*1055 FILLER_30_786
*1056 FILLER_30_793
*1057 FILLER_30_800
*1058 FILLER_30_807
*1059 FILLER_30_814
*1060 FILLER_30_821
*1061 FILLER_30_828
*1062 FILLER_31_11
*1063 FILLER_31_18
*1064 FILLER_31_25
*1065 FILLER_31_32
*1066 FILLER_31_39
*1067 FILLER_31_4
*1068 FILLER_31_46
*1069 FILLER_31_53
*1070 FILLER_31_55
*1071 FILLER_31_765
*1072 FILLER_31_772
*1073 FILLER_31_779
*1074 FILLER_31_786
*1075 FILLER_31_793
*1076 FILLER_31_800
*1077 FILLER_31_807
*1078 FILLER_31_814
*1079 FILLER_31_821
*1080 FILLER_31_828
*1081 FILLER_31_856
*1082 FILLER_31_860
*1083 FILLER_32_11
*1084 FILLER_32_18
*1085 FILLER_32_25
*1086 FILLER_32_32
*1087 FILLER_32_36
*1088 FILLER_32_4
*1089 FILLER_32_47
*1090 FILLER_32_54
*1091 FILLER_32_765
*1092 FILLER_32_772
*1093 FILLER_32_779
*1094 FILLER_32_786
*1095 FILLER_32_793
*1096 FILLER_32_800
*1097 FILLER_32_807
*1098 FILLER_32_814
*1099 FILLER_32_821
*1100 FILLER_32_828
*1101 FILLER_32_849
*1102 FILLER_32_856
*1103 FILLER_32_860
*1104 FILLER_33_0
*1105 FILLER_33_14
*1106 FILLER_33_21
*1107 FILLER_33_28
*1108 FILLER_33_7
*1109 FILLER_33_765
*1110 FILLER_33_772
*1111 FILLER_33_779
*1112 FILLER_33_786
*1113 FILLER_33_793
*1114 FILLER_33_800
*1115 FILLER_33_807
*1116 FILLER_33_814
*1117 FILLER_33_821
*1118 FILLER_33_828
*1119 FILLER_33_856
*1120 FILLER_33_860
*1121 FILLER_34_0
*1122 FILLER_34_14
*1123 FILLER_34_21
*1124 FILLER_34_28
*1125 FILLER_34_35
*1126 FILLER_34_42
*1127 FILLER_34_49
*1128 FILLER_34_7
*1129 FILLER_34_765
*1130 FILLER_34_772
*1131 FILLER_34_779
*1132 FILLER_34_786
*1133 FILLER_34_793
*1134 FILLER_34_800
*1135 FILLER_34_807
*1136 FILLER_34_814
*1137 FILLER_34_821
*1138 FILLER_35_0
*1139 FILLER_35_14
*1140 FILLER_35_21
*1141 FILLER_35_28
*1142 FILLER_35_35
*1143 FILLER_35_42
*1144 FILLER_35_49
*1145 FILLER_35_7
*1146 FILLER_35_765
*1147 FILLER_35_772
*1148 FILLER_35_779
*1149 FILLER_35_786
*1150 FILLER_35_793
*1151 FILLER_35_800
*1152 FILLER_35_807
*1153 FILLER_35_814
*1154 FILLER_35_821
*1155 FILLER_35_825
*1156 FILLER_35_837
*1157 FILLER_35_844
*1158 FILLER_35_851
*1159 FILLER_35_858
*1160 FILLER_36_0
*1161 FILLER_36_14
*1162 FILLER_36_21
*1163 FILLER_36_28
*1164 FILLER_36_35
*1165 FILLER_36_49
*1166 FILLER_36_7
*1167 FILLER_36_790
*1168 FILLER_36_797
*1169 FILLER_36_804
*1170 FILLER_36_811
*1171 FILLER_36_818
*1172 FILLER_37_0
*1173 FILLER_37_14
*1174 FILLER_37_21
*1175 FILLER_37_28
*1176 FILLER_37_7
*1177 FILLER_37_765
*1178 FILLER_37_772
*1179 FILLER_37_779
*1180 FILLER_37_786
*1181 FILLER_37_793
*1182 FILLER_37_800
*1183 FILLER_37_807
*1184 FILLER_37_814
*1185 FILLER_37_818
*1186 FILLER_37_830
*1187 FILLER_37_834
*1188 FILLER_38_0
*1189 FILLER_38_14
*1190 FILLER_38_21
*1191 FILLER_38_28
*1192 FILLER_38_35
*1193 FILLER_38_42
*1194 FILLER_38_49
*1195 FILLER_38_7
*1196 FILLER_38_765
*1197 FILLER_38_772
*1198 FILLER_38_779
*1199 FILLER_38_786
*1200 FILLER_38_793
*1201 FILLER_38_800
*1202 FILLER_38_807
*1203 FILLER_38_851
*1204 FILLER_38_858
*1205 FILLER_39_0
*1206 FILLER_39_14
*1207 FILLER_39_21
*1208 FILLER_39_28
*1209 FILLER_39_35
*1210 FILLER_39_47
*1211 FILLER_39_54
*1212 FILLER_39_7
*1213 FILLER_39_765
*1214 FILLER_39_772
*1215 FILLER_39_779
*1216 FILLER_39_786
*1217 FILLER_39_793
*1218 FILLER_39_800
*1219 FILLER_39_807
*1220 FILLER_39_814
*1221 FILLER_39_859
*1222 FILLER_39_861
*1223 FILLER_3_102
*1224 FILLER_3_109
*1225 FILLER_3_11
*1226 FILLER_3_116
*1227 FILLER_3_123
*1228 FILLER_3_130
*1229 FILLER_3_137
*1230 FILLER_3_144
*1231 FILLER_3_151
*1232 FILLER_3_158
*1233 FILLER_3_165
*1234 FILLER_3_172
*1235 FILLER_3_179
*1236 FILLER_3_18
*1237 FILLER_3_186
*1238 FILLER_3_193
*1239 FILLER_3_200
*1240 FILLER_3_207
*1241 FILLER_3_211
*1242 FILLER_3_223
*1243 FILLER_3_230
*1244 FILLER_3_234
*1245 FILLER_3_25
*1246 FILLER_3_263
*1247 FILLER_3_270
*1248 FILLER_3_284
*1249 FILLER_3_291
*1250 FILLER_3_298
*1251 FILLER_3_305
*1252 FILLER_3_312
*1253 FILLER_3_32
*1254 FILLER_3_336
*1255 FILLER_3_340
*1256 FILLER_3_351
*1257 FILLER_3_358
*1258 FILLER_3_372
*1259 FILLER_3_379
*1260 FILLER_3_386
*1261 FILLER_3_39
*1262 FILLER_3_393
*1263 FILLER_3_4
*1264 FILLER_3_404
*1265 FILLER_3_442
*1266 FILLER_3_46
*1267 FILLER_3_486
*1268 FILLER_3_490
*1269 FILLER_3_502
*1270 FILLER_3_514
*1271 FILLER_3_528
*1272 FILLER_3_53
*1273 FILLER_3_535
*1274 FILLER_3_569
*1275 FILLER_3_576
*1276 FILLER_3_583
*1277 FILLER_3_590
*1278 FILLER_3_597
*1279 FILLER_3_60
*1280 FILLER_3_604
*1281 FILLER_3_611
*1282 FILLER_3_618
*1283 FILLER_3_625
*1284 FILLER_3_632
*1285 FILLER_3_639
*1286 FILLER_3_646
*1287 FILLER_3_653
*1288 FILLER_3_660
*1289 FILLER_3_667
*1290 FILLER_3_67
*1291 FILLER_3_674
*1292 FILLER_3_681
*1293 FILLER_3_688
*1294 FILLER_3_695
*1295 FILLER_3_702
*1296 FILLER_3_709
*1297 FILLER_3_716
*1298 FILLER_3_723
*1299 FILLER_3_730
*1300 FILLER_3_737
*1301 FILLER_3_74
*1302 FILLER_3_744
*1303 FILLER_3_751
*1304 FILLER_3_758
*1305 FILLER_3_765
*1306 FILLER_3_772
*1307 FILLER_3_779
*1308 FILLER_3_786
*1309 FILLER_3_793
*1310 FILLER_3_800
*1311 FILLER_3_807
*1312 FILLER_3_81
*1313 FILLER_3_814
*1314 FILLER_3_821
*1315 FILLER_3_828
*1316 FILLER_3_88
*1317 FILLER_3_95
*1318 FILLER_40_0
*1319 FILLER_40_14
*1320 FILLER_40_21
*1321 FILLER_40_28
*1322 FILLER_40_7
*1323 FILLER_40_765
*1324 FILLER_40_772
*1325 FILLER_40_779
*1326 FILLER_40_786
*1327 FILLER_40_793
*1328 FILLER_40_800
*1329 FILLER_40_807
*1330 FILLER_40_814
*1331 FILLER_40_821
*1332 FILLER_40_832
*1333 FILLER_40_844
*1334 FILLER_40_851
*1335 FILLER_40_858
*1336 FILLER_41_0
*1337 FILLER_41_14
*1338 FILLER_41_21
*1339 FILLER_41_28
*1340 FILLER_41_35
*1341 FILLER_41_7
*1342 FILLER_41_765
*1343 FILLER_41_772
*1344 FILLER_41_779
*1345 FILLER_41_786
*1346 FILLER_41_793
*1347 FILLER_41_800
*1348 FILLER_41_807
*1349 FILLER_41_814
*1350 FILLER_41_821
*1351 FILLER_41_828
*1352 FILLER_42_0
*1353 FILLER_42_14
*1354 FILLER_42_21
*1355 FILLER_42_28
*1356 FILLER_42_35
*1357 FILLER_42_42
*1358 FILLER_42_53
*1359 FILLER_42_55
*1360 FILLER_42_7
*1361 FILLER_42_765
*1362 FILLER_42_772
*1363 FILLER_42_779
*1364 FILLER_42_786
*1365 FILLER_42_793
*1366 FILLER_42_800
*1367 FILLER_42_807
*1368 FILLER_42_814
*1369 FILLER_42_821
*1370 FILLER_42_842
*1371 FILLER_42_850
*1372 FILLER_42_857
*1373 FILLER_42_861
*1374 FILLER_43_0
*1375 FILLER_43_14
*1376 FILLER_43_21
*1377 FILLER_43_28
*1378 FILLER_43_35
*1379 FILLER_43_42
*1380 FILLER_43_49
*1381 FILLER_43_7
*1382 FILLER_43_765
*1383 FILLER_43_772
*1384 FILLER_43_779
*1385 FILLER_43_786
*1386 FILLER_43_793
*1387 FILLER_43_800
*1388 FILLER_43_807
*1389 FILLER_43_814
*1390 FILLER_43_821
*1391 FILLER_43_828
*1392 FILLER_44_0
*1393 FILLER_44_14
*1394 FILLER_44_160
*1395 FILLER_44_167
*1396 FILLER_44_209
*1397 FILLER_44_21
*1398 FILLER_44_227
*1399 FILLER_44_261
*1400 FILLER_44_265
*1401 FILLER_44_28
*1402 FILLER_44_35
*1403 FILLER_44_368
*1404 FILLER_44_393
*1405 FILLER_44_42
*1406 FILLER_44_424
*1407 FILLER_44_49
*1408 FILLER_44_526
*1409 FILLER_44_56
*1410 FILLER_44_570
*1411 FILLER_44_577
*1412 FILLER_44_584
*1413 FILLER_44_591
*1414 FILLER_44_598
*1415 FILLER_44_605
*1416 FILLER_44_612
*1417 FILLER_44_619
*1418 FILLER_44_626
*1419 FILLER_44_63
*1420 FILLER_44_671
*1421 FILLER_44_688
*1422 FILLER_44_695
*1423 FILLER_44_7
*1424 FILLER_44_741
*1425 FILLER_44_748
*1426 FILLER_44_755
*1427 FILLER_44_762
*1428 FILLER_44_769
*1429 FILLER_44_776
*1430 FILLER_44_78
*1431 FILLER_44_783
*1432 FILLER_44_790
*1433 FILLER_44_797
*1434 FILLER_44_804
*1435 FILLER_44_811
*1436 FILLER_44_818
*1437 FILLER_44_825
*1438 FILLER_44_832
*1439 FILLER_44_839
*1440 FILLER_44_846
*1441 FILLER_44_85
*1442 FILLER_44_853
*1443 FILLER_44_860
*1444 FILLER_44_92
*1445 FILLER_45_0
*1446 FILLER_45_106
*1447 FILLER_45_113
*1448 FILLER_45_120
*1449 FILLER_45_127
*1450 FILLER_45_138
*1451 FILLER_45_14
*1452 FILLER_45_207
*1453 FILLER_45_21
*1454 FILLER_45_236
*1455 FILLER_45_243
*1456 FILLER_45_250
*1457 FILLER_45_28
*1458 FILLER_45_292
*1459 FILLER_45_299
*1460 FILLER_45_333
*1461 FILLER_45_340
*1462 FILLER_45_35
*1463 FILLER_45_395
*1464 FILLER_45_402
*1465 FILLER_45_42
*1466 FILLER_45_450
*1467 FILLER_45_49
*1468 FILLER_45_56
*1469 FILLER_45_563
*1470 FILLER_45_570
*1471 FILLER_45_577
*1472 FILLER_45_584
*1473 FILLER_45_591
*1474 FILLER_45_598
*1475 FILLER_45_605
*1476 FILLER_45_612
*1477 FILLER_45_619
*1478 FILLER_45_626
*1479 FILLER_45_63
*1480 FILLER_45_633
*1481 FILLER_45_640
*1482 FILLER_45_647
*1483 FILLER_45_654
*1484 FILLER_45_656
*1485 FILLER_45_670
*1486 FILLER_45_677
*1487 FILLER_45_684
*1488 FILLER_45_691
*1489 FILLER_45_698
*1490 FILLER_45_7
*1491 FILLER_45_70
*1492 FILLER_45_705
*1493 FILLER_45_712
*1494 FILLER_45_719
*1495 FILLER_45_723
*1496 FILLER_45_727
*1497 FILLER_45_734
*1498 FILLER_45_741
*1499 FILLER_45_748
*1500 FILLER_45_755
*1501 FILLER_45_762
*1502 FILLER_45_769
*1503 FILLER_45_77
*1504 FILLER_45_776
*1505 FILLER_45_783
*1506 FILLER_45_790
*1507 FILLER_45_797
*1508 FILLER_45_804
*1509 FILLER_45_811
*1510 FILLER_45_818
*1511 FILLER_45_825
*1512 FILLER_45_832
*1513 FILLER_45_839
*1514 FILLER_45_84
*1515 FILLER_45_846
*1516 FILLER_45_853
*1517 FILLER_45_860
*1518 FILLER_45_91
*1519 FILLER_45_98
*1520 FILLER_46_0
*1521 FILLER_46_105
*1522 FILLER_46_112
*1523 FILLER_46_119
*1524 FILLER_46_126
*1525 FILLER_46_133
*1526 FILLER_46_137
*1527 FILLER_46_14
*1528 FILLER_46_142
*1529 FILLER_46_149
*1530 FILLER_46_156
*1531 FILLER_46_160
*1532 FILLER_46_171
*1533 FILLER_46_178
*1534 FILLER_46_195
*1535 FILLER_46_21
*1536 FILLER_46_234
*1537 FILLER_46_263
*1538 FILLER_46_278
*1539 FILLER_46_28
*1540 FILLER_46_285
*1541 FILLER_46_292
*1542 FILLER_46_299
*1543 FILLER_46_306
*1544 FILLER_46_313
*1545 FILLER_46_320
*1546 FILLER_46_35
*1547 FILLER_46_383
*1548 FILLER_46_390
*1549 FILLER_46_397
*1550 FILLER_46_404
*1551 FILLER_46_418
*1552 FILLER_46_42
*1553 FILLER_46_429
*1554 FILLER_46_436
*1555 FILLER_46_440
*1556 FILLER_46_455
*1557 FILLER_46_461
*1558 FILLER_46_465
*1559 FILLER_46_477
*1560 FILLER_46_484
*1561 FILLER_46_49
*1562 FILLER_46_491
*1563 FILLER_46_498
*1564 FILLER_46_512
*1565 FILLER_46_519
*1566 FILLER_46_540
*1567 FILLER_46_547
*1568 FILLER_46_554
*1569 FILLER_46_56
*1570 FILLER_46_561
*1571 FILLER_46_568
*1572 FILLER_46_575
*1573 FILLER_46_582
*1574 FILLER_46_589
*1575 FILLER_46_596
*1576 FILLER_46_603
*1577 FILLER_46_610
*1578 FILLER_46_617
*1579 FILLER_46_624
*1580 FILLER_46_63
*1581 FILLER_46_631
*1582 FILLER_46_638
*1583 FILLER_46_645
*1584 FILLER_46_652
*1585 FILLER_46_659
*1586 FILLER_46_666
*1587 FILLER_46_673
*1588 FILLER_46_680
*1589 FILLER_46_687
*1590 FILLER_46_694
*1591 FILLER_46_7
*1592 FILLER_46_70
*1593 FILLER_46_701
*1594 FILLER_46_708
*1595 FILLER_46_715
*1596 FILLER_46_722
*1597 FILLER_46_729
*1598 FILLER_46_736
*1599 FILLER_46_743
*1600 FILLER_46_750
*1601 FILLER_46_757
*1602 FILLER_46_764
*1603 FILLER_46_77
*1604 FILLER_46_771
*1605 FILLER_46_778
*1606 FILLER_46_785
*1607 FILLER_46_792
*1608 FILLER_46_799
*1609 FILLER_46_806
*1610 FILLER_46_813
*1611 FILLER_46_820
*1612 FILLER_46_827
*1613 FILLER_46_834
*1614 FILLER_46_84
*1615 FILLER_46_841
*1616 FILLER_46_848
*1617 FILLER_46_855
*1618 FILLER_46_91
*1619 FILLER_46_98
*1620 FILLER_47_0
*1621 FILLER_47_105
*1622 FILLER_47_112
*1623 FILLER_47_119
*1624 FILLER_47_126
*1625 FILLER_47_133
*1626 FILLER_47_14
*1627 FILLER_47_140
*1628 FILLER_47_147
*1629 FILLER_47_154
*1630 FILLER_47_161
*1631 FILLER_47_168
*1632 FILLER_47_175
*1633 FILLER_47_182
*1634 FILLER_47_186
*1635 FILLER_47_21
*1636 FILLER_47_218
*1637 FILLER_47_222
*1638 FILLER_47_230
*1639 FILLER_47_239
*1640 FILLER_47_241
*1641 FILLER_47_264
*1642 FILLER_47_274
*1643 FILLER_47_28
*1644 FILLER_47_288
*1645 FILLER_47_295
*1646 FILLER_47_329
*1647 FILLER_47_35
*1648 FILLER_47_396
*1649 FILLER_47_403
*1650 FILLER_47_415
*1651 FILLER_47_42
*1652 FILLER_47_422
*1653 FILLER_47_453
*1654 FILLER_47_460
*1655 FILLER_47_467
*1656 FILLER_47_474
*1657 FILLER_47_481
*1658 FILLER_47_488
*1659 FILLER_47_49
*1660 FILLER_47_495
*1661 FILLER_47_502
*1662 FILLER_47_509
*1663 FILLER_47_516