*SPEF "ieee 1481-1999"
*DESIGN "heichips25_template"
*DATE "03:54:12 Saturday February 21, 2026"
*VENDOR "The OpenROAD Project"
*PROGRAM "OpenROAD"
*VERSION "dfc4f595dfb2e1c346492ff1f0274abb28725acf"
*DESIGN_FLOW "NAME_SCOPE LOCAL" "PIN_CAP NONE"
*DIVIDER /
*DELIMITER :
*BUS_DELIMITER []
*T_UNIT 1 NS
*C_UNIT 1 PF
*R_UNIT 1 OHM
*L_UNIT 1 HENRY

*NAME_MAP
*3 clk
*4 ena
*5 rst_n
*6 ui_in[0]
*7 ui_in[1]
*8 ui_in[2]
*9 ui_in[3]
*10 ui_in[4]
*11 ui_in[5]
*12 ui_in[6]
*13 ui_in[7]
*14 uio_in[0]
*15 uio_in[1]
*16 uio_in[2]
*17 uio_in[3]
*18 uio_in[4]
*19 uio_in[5]
*20 uio_in[6]
*21 uio_in[7]
*22 net
*23 net43
*24 net44
*25 net45
*26 net46
*27 net47
*28 net48
*29 net49
*30 uio_out[0]
*31 uio_out[1]
*32 uio_out[2]
*33 uio_out[3]
*34 uio_out[4]
*35 uio_out[5]
*36 uio_out[6]
*37 uio_out[7]
*38 net50
*39 net51
*40 net52
*41 net53
*42 net54
*43 net55
*44 net56
*45 net57
*48 _000_
*49 _001_
*50 _002_
*51 _003_
*52 _004_
*53 _005_
*54 _006_
*55 _007_
*56 _008_
*57 _009_
*58 _010_
*59 _011_
*60 _012_
*61 _013_
*62 _014_
*63 _015_
*64 _016_
*65 _017_
*66 _018_
*67 _019_
*68 _020_
*69 _021_
*70 _022_
*71 _023_
*72 _024_
*73 _025_
*74 _026_
*75 _027_
*76 _028_
*77 _029_
*78 _030_
*79 _031_
*80 _032_
*81 _033_
*82 _034_
*83 _035_
*84 _036_
*85 _037_
*86 _038_
*87 _039_
*88 _040_
*89 _041_
*90 _042_
*91 _043_
*92 _044_
*93 _045_
*94 _046_
*95 _047_
*96 _048_
*97 _049_
*98 _050_
*99 _051_
*100 _052_
*101 _053_
*102 _054_
*103 _055_
*104 _056_
*105 _057_
*106 _058_
*107 _059_
*108 _060_
*109 _061_
*110 _062_
*111 _063_
*112 _064_
*113 _065_
*114 _066_
*115 _067_
*116 _068_
*117 _069_
*118 _070_
*119 _071_
*120 _072_
*121 _073_
*122 _074_
*123 _075_
*124 _076_
*125 _077_
*126 _078_
*127 _079_
*128 _080_
*129 _081_
*130 _082_
*131 _083_
*132 _084_
*133 _085_
*134 _086_
*135 _087_
*136 _088_
*137 _089_
*138 _090_
*139 _091_
*140 _092_
*141 _093_
*142 _094_
*143 _095_
*144 _096_
*145 _097_
*146 _098_
*147 _099_
*148 _100_
*149 _101_
*150 _102_
*151 _103_
*152 _104_
*153 _105_
*154 _106_
*155 _107_
*156 _108_
*157 _109_
*158 _110_
*159 _111_
*160 _112_
*161 _113_
*162 _114_
*163 _115_
*164 adc_data\[0\]
*165 adc_data\[1\]
*166 adc_data\[2\]
*167 adc_data\[3\]
*168 adc_data\[4\]
*169 adc_data\[5\]
*170 adc_data\[6\]
*171 adc_data\[7\]
*172 adc_ready
*173 clk0_out
*174 clk1_out
*175 clk2_out
*176 clk_delayed
*177 clk_regs
*178 clknet_0_clk
*179 clknet_0_clk_regs
*180 clknet_1_0__leaf_clk
*181 clknet_1_1__leaf_clk
*182 clknet_4_0_0_clk_regs
*183 clknet_4_10_0_clk_regs
*184 clknet_4_11_0_clk_regs
*185 clknet_4_12_0_clk_regs
*186 clknet_4_13_0_clk_regs
*187 clknet_4_14_0_clk_regs
*188 clknet_4_15_0_clk_regs
*189 clknet_4_1_0_clk_regs
*190 clknet_4_2_0_clk_regs
*191 clknet_4_3_0_clk_regs
*192 clknet_4_4_0_clk_regs
*193 clknet_4_5_0_clk_regs
*194 clknet_4_6_0_clk_regs
*195 clknet_4_7_0_clk_regs
*196 clknet_4_8_0_clk_regs
*197 clknet_4_9_0_clk_regs
*198 data\[0\]
*199 data\[10\]
*200 data\[11\]
*201 data\[12\]
*202 data\[13\]
*203 data\[14\]
*204 data\[15\]
*205 data\[16\]
*206 data\[17\]
*207 data\[18\]
*208 data\[19\]
*209 data\[1\]
*210 data\[20\]
*211 data\[21\]
*212 data\[22\]
*213 data\[23\]
*214 data\[24\]
*215 data\[25\]
*216 data\[26\]
*217 data\[27\]
*218 data\[28\]
*219 data\[29\]
*220 data\[2\]
*221 data\[30\]
*222 data\[31\]
*223 data\[32\]
*224 data\[33\]
*225 data\[34\]
*226 data\[35\]
*227 data\[36\]
*228 data\[37\]
*229 data\[38\]
*230 data\[39\]
*231 data\[3\]
*232 data\[40\]
*233 data\[41\]
*234 data\[42\]
*235 data\[43\]
*236 data\[44\]
*237 data\[45\]
*238 data\[46\]
*239 data\[47\]
*240 data\[48\]
*241 data\[49\]
*242 data\[4\]
*243 data\[50\]
*244 data\[51\]
*245 data\[52\]
*246 data\[53\]
*247 data\[54\]
*248 data\[55\]
*249 data\[56\]
*250 data\[57\]
*251 data\[58\]
*252 data\[59\]
*253 data\[5\]
*254 data\[60\]
*255 data\[61\]
*256 data\[62\]
*257 data\[63\]
*258 data\[64\]
*259 data\[65\]
*260 data\[66\]
*261 data\[67\]
*262 data\[68\]
*263 data\[69\]
*264 data\[6\]
*265 data\[70\]
*266 data\[71\]
*267 data\[72\]
*268 data\[73\]
*269 data\[74\]
*270 data\[75\]
*271 data\[76\]
*272 data\[77\]
*273 data\[78\]
*274 data\[7\]
*275 data\[8\]
*276 data\[9\]
*277 delaynet_0_clk
*278 net1
*279 net10
*280 net11
*281 net12
*282 net13
*283 net14
*284 net15
*285 net16
*286 net17
*287 net18
*288 net19
*289 net2
*290 net20
*291 net21
*292 net22
*293 net23
*294 net24
*295 net25
*296 net26
*297 net27
*298 net28
*299 net29
*300 net3
*301 net30
*302 net31
*303 net32
*304 net33
*305 net34
*306 net35
*307 net36
*308 net37
*309 net38
*310 net39
*311 net4
*312 net40
*313 net41
*314 net42
*315 net5
*316 net6
*317 net7
*318 net8
*319 net9
*320 osc_out
*321 stable
*322 u_shift_reg\.bit_count\[0\]
*323 u_shift_reg\.bit_count\[1\]
*324 u_shift_reg\.bit_count\[2\]
*325 u_shift_reg\.bit_count\[3\]
*326 u_shift_reg\.bit_count\[4\]
*327 u_shift_reg\.bit_count\[5\]
*328 u_shift_reg\.bit_count\[6\]
*329 u_shift_reg\.locked
*330 ANTENNA_1
*331 FILLER_0_0
*332 FILLER_0_105
*333 FILLER_0_112
*334 FILLER_0_119
*335 FILLER_0_126
*336 FILLER_0_133
*337 FILLER_0_14
*338 FILLER_0_140
*339 FILLER_0_147
*340 FILLER_0_154
*341 FILLER_0_161
*342 FILLER_0_168
*343 FILLER_0_175
*344 FILLER_0_182
*345 FILLER_0_189
*346 FILLER_0_196
*347 FILLER_0_207
*348 FILLER_0_21
*349 FILLER_0_214
*350 FILLER_0_221
*351 FILLER_0_228
*352 FILLER_0_256
*353 FILLER_0_263
*354 FILLER_0_270
*355 FILLER_0_277
*356 FILLER_0_28
*357 FILLER_0_284
*358 FILLER_0_291
*359 FILLER_0_298
*360 FILLER_0_336
*361 FILLER_0_343
*362 FILLER_0_35
*363 FILLER_0_350
*364 FILLER_0_357
*365 FILLER_0_361
*366 FILLER_0_372
*367 FILLER_0_379
*368 FILLER_0_383
*369 FILLER_0_395
*370 FILLER_0_402
*371 FILLER_0_404
*372 FILLER_0_42
*373 FILLER_0_442
*374 FILLER_0_449
*375 FILLER_0_453
*376 FILLER_0_465
*377 FILLER_0_472
*378 FILLER_0_479
*379 FILLER_0_49
*380 FILLER_0_491
*381 FILLER_0_498
*382 FILLER_0_505
*383 FILLER_0_519
*384 FILLER_0_526
*385 FILLER_0_533
*386 FILLER_0_545
*387 FILLER_0_552
*388 FILLER_0_559
*389 FILLER_0_56
*390 FILLER_0_566
*391 FILLER_0_573
*392 FILLER_0_580
*393 FILLER_0_587
*394 FILLER_0_594
*395 FILLER_0_601
*396 FILLER_0_608
*397 FILLER_0_615
*398 FILLER_0_622
*399 FILLER_0_629
*400 FILLER_0_63
*401 FILLER_0_636
*402 FILLER_0_643
*403 FILLER_0_650
*404 FILLER_0_657
*405 FILLER_0_664
*406 FILLER_0_671
*407 FILLER_0_678
*408 FILLER_0_685
*409 FILLER_0_692
*410 FILLER_0_699
*411 FILLER_0_7
*412 FILLER_0_70
*413 FILLER_0_706
*414 FILLER_0_713
*415 FILLER_0_720
*416 FILLER_0_727
*417 FILLER_0_734
*418 FILLER_0_741
*419 FILLER_0_748
*420 FILLER_0_755
*421 FILLER_0_762
*422 FILLER_0_769
*423 FILLER_0_77
*424 FILLER_0_776
*425 FILLER_0_783
*426 FILLER_0_790
*427 FILLER_0_797
*428 FILLER_0_804
*429 FILLER_0_811
*430 FILLER_0_818
*431 FILLER_0_832
*432 FILLER_0_839
*433 FILLER_0_84
*434 FILLER_0_846
*435 FILLER_0_91
*436 FILLER_0_98
*437 FILLER_10_50
*438 FILLER_10_54
*439 FILLER_10_765
*440 FILLER_10_772
*441 FILLER_10_779
*442 FILLER_10_786
*443 FILLER_10_793
*444 FILLER_10_800
*445 FILLER_10_807
*446 FILLER_10_814
*447 FILLER_10_821
*448 FILLER_10_828
*449 FILLER_10_835
*450 FILLER_10_842
*451 FILLER_10_846
*452 FILLER_11_19
*453 FILLER_11_26
*454 FILLER_11_33
*455 FILLER_11_45
*456 FILLER_11_52
*457 FILLER_11_765
*458 FILLER_11_772
*459 FILLER_11_779
*460 FILLER_11_786
*461 FILLER_11_793
*462 FILLER_11_800
*463 FILLER_11_807
*464 FILLER_11_814
*465 FILLER_11_821
*466 FILLER_11_828
*467 FILLER_11_835
*468 FILLER_11_842
*469 FILLER_11_846
*470 FILLER_12_0
*471 FILLER_12_765
*472 FILLER_12_772
*473 FILLER_12_779
*474 FILLER_12_786
*475 FILLER_12_793
*476 FILLER_12_800
*477 FILLER_12_807
*478 FILLER_12_814
*479 FILLER_13_13
*480 FILLER_13_20
*481 FILLER_13_27
*482 FILLER_13_31
*483 FILLER_13_42
*484 FILLER_13_49
*485 FILLER_13_765
*486 FILLER_13_772
*487 FILLER_13_779
*488 FILLER_13_786
*489 FILLER_13_793
*490 FILLER_13_800
*491 FILLER_13_807
*492 FILLER_13_814
*493 FILLER_13_821
*494 FILLER_13_835
*495 FILLER_13_842
*496 FILLER_13_846
*497 FILLER_14_17
*498 FILLER_14_24
*499 FILLER_14_28
*500 FILLER_14_4
*501 FILLER_14_6
*502 FILLER_14_765
*503 FILLER_14_772
*504 FILLER_14_779
*505 FILLER_14_786
*506 FILLER_14_793
*507 FILLER_14_800
*508 FILLER_14_807
*509 FILLER_14_814
*510 FILLER_15_0
*511 FILLER_15_44
*512 FILLER_15_51
*513 FILLER_15_55
*514 FILLER_15_765
*515 FILLER_15_772
*516 FILLER_15_779
*517 FILLER_15_786
*518 FILLER_15_793
*519 FILLER_15_797
*520 FILLER_15_802
*521 FILLER_15_809
*522 FILLER_15_836
*523 FILLER_15_843
*524 FILLER_15_847
*525 FILLER_16_16
*526 FILLER_16_23
*527 FILLER_16_27
*528 FILLER_16_4
*529 FILLER_16_765
*530 FILLER_16_772
*531 FILLER_16_779
*532 FILLER_16_8
*533 FILLER_16_820
*534 FILLER_17_17
*535 FILLER_17_24
*536 FILLER_17_4
*537 FILLER_17_41
*538 FILLER_17_48
*539 FILLER_17_55
*540 FILLER_17_6
*541 FILLER_17_765
*542 FILLER_17_772
*543 FILLER_17_779
*544 FILLER_17_786
*545 FILLER_17_791
*546 FILLER_17_798
*547 FILLER_17_805
*548 FILLER_17_812
*549 FILLER_17_819
*550 FILLER_17_826
*551 FILLER_17_833
*552 FILLER_17_840
*553 FILLER_17_847
*554 FILLER_18_0
*555 FILLER_18_765
*556 FILLER_18_772
*557 FILLER_18_779
*558 FILLER_18_786
*559 FILLER_18_793
*560 FILLER_18_800
*561 FILLER_18_807
*562 FILLER_18_814
*563 FILLER_18_821
*564 FILLER_18_828
*565 FILLER_18_830
*566 FILLER_18_841
*567 FILLER_19_18
*568 FILLER_19_25
*569 FILLER_19_32
*570 FILLER_19_36
*571 FILLER_19_4
*572 FILLER_19_47
*573 FILLER_19_54
*574 FILLER_19_6
*575 FILLER_19_765
*576 FILLER_19_772
*577 FILLER_19_779
*578 FILLER_19_786
*579 FILLER_19_793
*580 FILLER_19_800
*581 FILLER_19_807
*582 FILLER_19_814
*583 FILLER_1_0
*584 FILLER_1_105
*585 FILLER_1_112
*586 FILLER_1_119
*587 FILLER_1_126
*588 FILLER_1_133
*589 FILLER_1_14
*590 FILLER_1_140
*591 FILLER_1_147
*592 FILLER_1_154
*593 FILLER_1_161
*594 FILLER_1_168
*595 FILLER_1_175
*596 FILLER_1_182
*597 FILLER_1_186
*598 FILLER_1_21
*599 FILLER_1_214
*600 FILLER_1_221
*601 FILLER_1_243
*602 FILLER_1_271
*603 FILLER_1_28
*604 FILLER_1_309
*605 FILLER_1_316
*606 FILLER_1_35
*607 FILLER_1_355
*608 FILLER_1_383
*609 FILLER_1_385
*610 FILLER_1_413
*611 FILLER_1_42
*612 FILLER_1_420
*613 FILLER_1_459
*614 FILLER_1_49
*615 FILLER_1_56
*616 FILLER_1_569
*617 FILLER_1_576
*618 FILLER_1_583
*619 FILLER_1_590
*620 FILLER_1_597
*621 FILLER_1_604
*622 FILLER_1_611
*623 FILLER_1_618
*624 FILLER_1_625
*625 FILLER_1_63
*626 FILLER_1_632
*627 FILLER_1_639
*628 FILLER_1_646
*629 FILLER_1_653
*630 FILLER_1_660
*631 FILLER_1_667
*632 FILLER_1_674
*633 FILLER_1_681
*634 FILLER_1_688
*635 FILLER_1_695
*636 FILLER_1_7
*637 FILLER_1_70
*638 FILLER_1_702
*639 FILLER_1_709
*640 FILLER_1_716
*641 FILLER_1_723
*642 FILLER_1_730
*643 FILLER_1_737
*644 FILLER_1_769
*645 FILLER_1_77
*646 FILLER_1_776
*647 FILLER_1_783
*648 FILLER_1_790
*649 FILLER_1_797
*650 FILLER_1_804
*651 FILLER_1_84
*652 FILLER_1_91
*653 FILLER_1_98
*654 FILLER_20_24
*655 FILLER_20_28
*656 FILLER_20_4
*657 FILLER_20_765
*658 FILLER_20_772
*659 FILLER_20_779
*660 FILLER_20_786
*661 FILLER_20_793
*662 FILLER_20_800
*663 FILLER_20_807
*664 FILLER_20_814
*665 FILLER_20_821
*666 FILLER_20_828
*667 FILLER_20_835
*668 FILLER_20_842
*669 FILLER_20_846
*670 FILLER_21_12
*671 FILLER_21_41
*672 FILLER_21_48
*673 FILLER_21_55
*674 FILLER_21_790
*675 FILLER_21_797
*676 FILLER_21_8
*677 FILLER_21_804
*678 FILLER_21_811
*679 FILLER_21_818
*680 FILLER_21_825
*681 FILLER_21_832
*682 FILLER_21_839
*683 FILLER_21_846
*684 FILLER_22_20
*685 FILLER_22_29
*686 FILLER_22_33
*687 FILLER_22_4
*688 FILLER_22_44
*689 FILLER_22_51
*690 FILLER_22_55
*691 FILLER_22_765
*692 FILLER_22_772
*693 FILLER_22_779
*694 FILLER_22_786
*695 FILLER_22_793
*696 FILLER_22_800
*697 FILLER_22_807
*698 FILLER_22_814
*699 FILLER_22_821
*700 FILLER_22_828
*701 FILLER_22_835
*702 FILLER_22_842
*703 FILLER_22_846
*704 FILLER_23_0
*705 FILLER_23_765
*706 FILLER_23_772
*707 FILLER_23_779
*708 FILLER_23_786
*709 FILLER_23_793
*710 FILLER_23_800
*711 FILLER_23_807
*712 FILLER_23_814
*713 FILLER_23_821
*714 FILLER_23_828
*715 FILLER_23_835
*716 FILLER_23_842
*717 FILLER_23_846
*718 FILLER_24_11
*719 FILLER_24_17
*720 FILLER_24_24
*721 FILLER_24_31
*722 FILLER_24_4
*723 FILLER_24_48
*724 FILLER_24_55
*725 FILLER_24_765
*726 FILLER_24_772
*727 FILLER_24_779
*728 FILLER_24_786
*729 FILLER_24_793
*730 FILLER_24_800
*731 FILLER_24_807
*732 FILLER_24_814
*733 FILLER_24_821
*734 FILLER_24_828
*735 FILLER_24_835
*736 FILLER_24_839
*737 FILLER_24_844
*738 FILLER_25_1006
*739 FILLER_25_1013
*740 FILLER_25_1020
*741 FILLER_25_1027
*742 FILLER_25_11
*743 FILLER_25_18
*744 FILLER_25_4
*745 FILLER_25_765
*746 FILLER_25_772
*747 FILLER_25_779
*748 FILLER_25_786
*749 FILLER_25_793
*750 FILLER_25_800
*751 FILLER_25_807
*752 FILLER_25_814
*753 FILLER_25_821
*754 FILLER_25_828
*755 FILLER_25_835
*756 FILLER_25_873
*757 FILLER_25_880
*758 FILLER_25_887
*759 FILLER_25_894
*760 FILLER_25_901
*761 FILLER_25_908
*762 FILLER_25_915
*763 FILLER_25_922
*764 FILLER_25_929
*765 FILLER_25_936
*766 FILLER_25_943
*767 FILLER_25_950
*768 FILLER_25_957
*769 FILLER_25_964
*770 FILLER_25_971
*771 FILLER_25_978
*772 FILLER_25_985
*773 FILLER_25_992
*774 FILLER_25_999
*775 FILLER_26_1003
*776 FILLER_26_1010
*777 FILLER_26_1017
*778 FILLER_26_1024
*779 FILLER_26_1028
*780 FILLER_26_11
*781 FILLER_26_18
*782 FILLER_26_4
*783 FILLER_26_49
*784 FILLER_26_765
*785 FILLER_26_772
*786 FILLER_26_779
*787 FILLER_26_786
*788 FILLER_26_793
*789 FILLER_26_800
*790 FILLER_26_807
*791 FILLER_26_814
*792 FILLER_26_821
*793 FILLER_26_828
*794 FILLER_26_835
*795 FILLER_26_842
*796 FILLER_26_849
*797 FILLER_26_856
*798 FILLER_26_863
*799 FILLER_26_870
*800 FILLER_26_877
*801 FILLER_26_884
*802 FILLER_26_891
*803 FILLER_26_898
*804 FILLER_26_905
*805 FILLER_26_912
*806 FILLER_26_919
*807 FILLER_26_926
*808 FILLER_26_933
*809 FILLER_26_940
*810 FILLER_26_947
*811 FILLER_26_954
*812 FILLER_26_961
*813 FILLER_26_968
*814 FILLER_26_975
*815 FILLER_26_982
*816 FILLER_26_989
*817 FILLER_26_996
*818 FILLER_27_0
*819 FILLER_27_1003
*820 FILLER_27_1010
*821 FILLER_27_1017
*822 FILLER_27_1024
*823 FILLER_27_1028
*824 FILLER_27_14
*825 FILLER_27_21
*826 FILLER_27_28
*827 FILLER_27_45
*828 FILLER_27_52
*829 FILLER_27_7
*830 FILLER_27_765
*831 FILLER_27_772
*832 FILLER_27_779
*833 FILLER_27_786
*834 FILLER_27_793
*835 FILLER_27_800
*836 FILLER_27_807
*837 FILLER_27_814
*838 FILLER_27_821
*839 FILLER_27_828
*840 FILLER_27_835
*841 FILLER_27_842
*842 FILLER_27_849
*843 FILLER_27_856
*844 FILLER_27_863
*845 FILLER_27_870
*846 FILLER_27_877
*847 FILLER_27_884
*848 FILLER_27_891
*849 FILLER_27_898
*850 FILLER_27_905
*851 FILLER_27_912
*852 FILLER_27_919
*853 FILLER_27_926
*854 FILLER_27_933
*855 FILLER_27_940
*856 FILLER_27_947
*857 FILLER_27_954
*858 FILLER_27_961
*859 FILLER_27_968
*860 FILLER_27_975
*861 FILLER_27_982
*862 FILLER_27_989
*863 FILLER_27_996
*864 FILLER_28_15
*865 FILLER_28_22
*866 FILLER_28_765
*867 FILLER_28_772
*868 FILLER_28_779
*869 FILLER_28_786
*870 FILLER_28_793
*871 FILLER_28_8
*872 FILLER_28_800
*873 FILLER_28_807
*874 FILLER_28_814
*875 FILLER_28_821
*876 FILLER_28_828
*877 FILLER_28_835
*878 FILLER_28_842
*879 FILLER_28_849
*880 FILLER_28_856
*881 FILLER_28_860
*882 FILLER_29_27
*883 FILLER_29_34
*884 FILLER_29_36
*885 FILLER_29_45
*886 FILLER_29_52
*887 FILLER_29_765
*888 FILLER_29_772
*889 FILLER_29_779
*890 FILLER_29_786
*891 FILLER_29_793
*892 FILLER_29_800
*893 FILLER_29_807
*894 FILLER_29_814
*895 FILLER_29_821
*896 FILLER_29_828
*897 FILLER_29_835
*898 FILLER_29_842
*899 FILLER_29_849
*900 FILLER_29_856
*901 FILLER_29_860
*902 FILLER_2_102
*903 FILLER_2_109
*904 FILLER_2_11
*905 FILLER_2_116
*906 FILLER_2_123
*907 FILLER_2_130
*908 FILLER_2_137
*909 FILLER_2_144
*910 FILLER_2_151
*911 FILLER_2_158
*912 FILLER_2_165
*913 FILLER_2_179
*914 FILLER_2_18
*915 FILLER_2_186
*916 FILLER_2_193
*917 FILLER_2_200
*918 FILLER_2_202
*919 FILLER_2_230
*920 FILLER_2_234
*921 FILLER_2_239
*922 FILLER_2_246
*923 FILLER_2_25
*924 FILLER_2_253
*925 FILLER_2_291
*926 FILLER_2_32
*927 FILLER_2_320
*928 FILLER_2_331
*929 FILLER_2_362
*930 FILLER_2_39
*931 FILLER_2_393
*932 FILLER_2_397
*933 FILLER_2_4
*934 FILLER_2_426
*935 FILLER_2_433
*936 FILLER_2_46
*937 FILLER_2_471
*938 FILLER_2_478
*939 FILLER_2_507
*940 FILLER_2_509
*941 FILLER_2_53
*942 FILLER_2_537
*943 FILLER_2_541
*944 FILLER_2_597
*945 FILLER_2_60
*946 FILLER_2_604
*947 FILLER_2_611
*948 FILLER_2_618
*949 FILLER_2_625
*950 FILLER_2_632
*951 FILLER_2_639
*952 FILLER_2_646
*953 FILLER_2_653
*954 FILLER_2_660
*955 FILLER_2_667
*956 FILLER_2_67
*957 FILLER_2_674
*958 FILLER_2_681
*959 FILLER_2_688
*960 FILLER_2_695
*961 FILLER_2_702
*962 FILLER_2_709
*963 FILLER_2_716
*964 FILLER_2_723
*965 FILLER_2_730
*966 FILLER_2_737
*967 FILLER_2_74
*968 FILLER_2_744
*969 FILLER_2_751
*970 FILLER_2_758
*971 FILLER_2_765
*972 FILLER_2_772
*973 FILLER_2_779
*974 FILLER_2_786
*975 FILLER_2_793
*976 FILLER_2_800
*977 FILLER_2_807
*978 FILLER_2_81
*979 FILLER_2_814
*980 FILLER_2_88
*981 FILLER_2_95
*982 FILLER_30_0
*983 FILLER_30_19
*984 FILLER_30_50
*985 FILLER_30_54
*986 FILLER_30_765
*987 FILLER_30_772
*988 FILLER_30_779
*989 FILLER_30_786
*990 FILLER_30_793
*991 FILLER_30_800
*992 FILLER_30_807
*993 FILLER_30_814
*994 FILLER_30_821
*995 FILLER_30_828
*996 FILLER_30_835
*997 FILLER_30_842
*998 FILLER_30_849
*999 FILLER_30_856
*1000 FILLER_30_860
*1001 FILLER_31_18
*1002 FILLER_31_25
*1003 FILLER_31_41
*1004 FILLER_31_48
*1005 FILLER_31_55
*1006 FILLER_31_765
*1007 FILLER_31_772
*1008 FILLER_31_779
*1009 FILLER_31_786
*1010 FILLER_31_793
*1011 FILLER_31_8
*1012 FILLER_31_800
*1013 FILLER_31_807
*1014 FILLER_31_814
*1015 FILLER_31_821
*1016 FILLER_31_848
*1017 FILLER_31_855
*1018 FILLER_32_16
*1019 FILLER_32_23
*1020 FILLER_32_27
*1021 FILLER_32_4
*1022 FILLER_32_765
*1023 FILLER_32_772
*1024 FILLER_32_779
*1025 FILLER_32_786
*1026 FILLER_32_793
*1027 FILLER_32_800
*1028 FILLER_32_807
*1029 FILLER_32_814
*1030 FILLER_32_821
*1031 FILLER_32_828
*1032 FILLER_32_835
*1033 FILLER_32_842
*1034 FILLER_32_849
*1035 FILLER_32_856
*1036 FILLER_32_860
*1037 FILLER_33_46
*1038 FILLER_33_53
*1039 FILLER_33_55
*1040 FILLER_33_765
*1041 FILLER_33_772
*1042 FILLER_33_779
*1043 FILLER_33_786
*1044 FILLER_33_793
*1045 FILLER_33_800
*1046 FILLER_33_807
*1047 FILLER_33_814
*1048 FILLER_33_821
*1049 FILLER_33_828
*1050 FILLER_33_835
*1051 FILLER_33_842
*1052 FILLER_33_849
*1053 FILLER_33_856
*1054 FILLER_33_860
*1055 FILLER_34_0
*1056 FILLER_34_13
*1057 FILLER_34_17
*1058 FILLER_34_23
*1059 FILLER_34_44
*1060 FILLER_34_51
*1061 FILLER_34_55
*1062 FILLER_34_765
*1063 FILLER_34_772
*1064 FILLER_34_779
*1065 FILLER_34_786
*1066 FILLER_34_793
*1067 FILLER_34_800
*1068 FILLER_34_807
*1069 FILLER_34_814
*1070 FILLER_34_821
*1071 FILLER_34_828
*1072 FILLER_34_835
*1073 FILLER_34_839
*1074 FILLER_34_851
*1075 FILLER_34_858
*1076 FILLER_35_0
*1077 FILLER_35_11
*1078 FILLER_35_19
*1079 FILLER_35_21
*1080 FILLER_35_27
*1081 FILLER_35_7
*1082 FILLER_35_765
*1083 FILLER_35_772
*1084 FILLER_35_779
*1085 FILLER_35_786
*1086 FILLER_35_793
*1087 FILLER_35_800
*1088 FILLER_35_807
*1089 FILLER_35_814
*1090 FILLER_35_821
*1091 FILLER_35_828
*1092 FILLER_36_0
*1093 FILLER_36_765
*1094 FILLER_36_772
*1095 FILLER_36_779
*1096 FILLER_36_786
*1097 FILLER_36_793
*1098 FILLER_36_800
*1099 FILLER_36_807
*1100 FILLER_36_814
*1101 FILLER_36_821
*1102 FILLER_36_828
*1103 FILLER_36_835
*1104 FILLER_36_842
*1105 FILLER_36_849
*1106 FILLER_36_856
*1107 FILLER_36_860
*1108 FILLER_37_0
*1109 FILLER_37_18
*1110 FILLER_37_20
*1111 FILLER_37_27
*1112 FILLER_37_38
*1113 FILLER_37_7
*1114 FILLER_37_765
*1115 FILLER_37_772
*1116 FILLER_37_779
*1117 FILLER_37_786
*1118 FILLER_37_793
*1119 FILLER_37_800
*1120 FILLER_37_807
*1121 FILLER_37_814
*1122 FILLER_37_821
*1123 FILLER_37_828
*1124 FILLER_37_835
*1125 FILLER_37_842
*1126 FILLER_37_849
*1127 FILLER_37_856
*1128 FILLER_37_860
*1129 FILLER_38_0
*1130 FILLER_38_23
*1131 FILLER_38_27
*1132 FILLER_38_4
*1133 FILLER_38_765
*1134 FILLER_38_772
*1135 FILLER_38_779
*1136 FILLER_38_786
*1137 FILLER_38_793
*1138 FILLER_38_800
*1139 FILLER_38_807
*1140 FILLER_38_814
*1141 FILLER_38_821
*1142 FILLER_38_828
*1143 FILLER_38_835
*1144 FILLER_38_842
*1145 FILLER_38_849
*1146 FILLER_38_856
*1147 FILLER_38_860
*1148 FILLER_39_0
*1149 FILLER_39_33
*1150 FILLER_39_4
*1151 FILLER_39_40
*1152 FILLER_39_47
*1153 FILLER_39_54
*1154 FILLER_39_765
*1155 FILLER_39_772
*1156 FILLER_39_779
*1157 FILLER_39_786
*1158 FILLER_39_793
*1159 FILLER_39_800
*1160 FILLER_39_807
*1161 FILLER_39_824
*1162 FILLER_39_831
*1163 FILLER_39_838
*1164 FILLER_39_845
*1165 FILLER_3_102
*1166 FILLER_3_109
*1167 FILLER_3_11
*1168 FILLER_3_116
*1169 FILLER_3_123
*1170 FILLER_3_164
*1171 FILLER_3_168
*1172 FILLER_3_18
*1173 FILLER_3_196
*1174 FILLER_3_200
*1175 FILLER_3_212
*1176 FILLER_3_214
*1177 FILLER_3_25
*1178 FILLER_3_256
*1179 FILLER_3_263
*1180 FILLER_3_270
*1181 FILLER_3_277
*1182 FILLER_3_284
*1183 FILLER_3_298
*1184 FILLER_3_305
*1185 FILLER_3_312
*1186 FILLER_3_32
*1187 FILLER_3_320
*1188 FILLER_3_327
*1189 FILLER_3_331
*1190 FILLER_3_363
*1191 FILLER_3_370
*1192 FILLER_3_374
*1193 FILLER_3_39
*1194 FILLER_3_393
*1195 FILLER_3_397
*1196 FILLER_3_4
*1197 FILLER_3_409
*1198 FILLER_3_416
*1199 FILLER_3_423
*1200 FILLER_3_430
*1201 FILLER_3_432
*1202 FILLER_3_46
*1203 FILLER_3_466
*1204 FILLER_3_470
*1205 FILLER_3_482
*1206 FILLER_3_489
*1207 FILLER_3_496
*1208 FILLER_3_498
*1209 FILLER_3_509
*1210 FILLER_3_516
*1211 FILLER_3_523
*1212 FILLER_3_53
*1213 FILLER_3_530
*1214 FILLER_3_542
*1215 FILLER_3_549
*1216 FILLER_3_556
*1217 FILLER_3_560
*1218 FILLER_3_571
*1219 FILLER_3_578
*1220 FILLER_3_585
*1221 FILLER_3_592
*1222 FILLER_3_599
*1223 FILLER_3_60
*1224 FILLER_3_606
*1225 FILLER_3_613
*1226 FILLER_3_620
*1227 FILLER_3_627
*1228 FILLER_3_634
*1229 FILLER_3_641
*1230 FILLER_3_648
*1231 FILLER_3_655
*1232 FILLER_3_662
*1233 FILLER_3_669
*1234 FILLER_3_67
*1235 FILLER_3_676
*1236 FILLER_3_683
*1237 FILLER_3_690
*1238 FILLER_3_697
*1239 FILLER_3_704
*1240 FILLER_3_711
*1241 FILLER_3_718
*1242 FILLER_3_725
*1243 FILLER_3_732
*1244 FILLER_3_739
*1245 FILLER_3_74
*1246 FILLER_3_746
*1247 FILLER_3_753
*1248 FILLER_3_760
*1249 FILLER_3_767
*1250 FILLER_3_774
*1251 FILLER_3_781
*1252 FILLER_3_788
*1253 FILLER_3_795
*1254 FILLER_3_802
*1255 FILLER_3_809
*1256 FILLER_3_81
*1257 FILLER_3_816
*1258 FILLER_3_823
*1259 FILLER_3_830
*1260 FILLER_3_837
*1261 FILLER_3_844
*1262 FILLER_3_88
*1263 FILLER_3_95
*1264 FILLER_40_0
*1265 FILLER_40_15
*1266 FILLER_40_17
*1267 FILLER_40_55
*1268 FILLER_40_765
*1269 FILLER_40_772
*1270 FILLER_40_779
*1271 FILLER_40_786
*1272 FILLER_40_793
*1273 FILLER_40_800
*1274 FILLER_40_807
*1275 FILLER_40_814
*1276 FILLER_40_821
*1277 FILLER_40_828
*1278 FILLER_40_835
*1279 FILLER_40_839
*1280 FILLER_40_851
*1281 FILLER_40_858
*1282 FILLER_41_0
*1283 FILLER_41_11
*1284 FILLER_41_17
*1285 FILLER_41_24
*1286 FILLER_41_31
*1287 FILLER_41_38
*1288 FILLER_41_45
*1289 FILLER_41_52
*1290 FILLER_41_7
*1291 FILLER_41_765
*1292 FILLER_41_772
*1293 FILLER_41_779
*1294 FILLER_41_786
*1295 FILLER_41_793
*1296 FILLER_41_800
*1297 FILLER_41_807
*1298 FILLER_41_814
*1299 FILLER_41_821
*1300 FILLER_41_828
*1301 FILLER_42_0
*1302 FILLER_42_123
*1303 FILLER_42_130
*1304 FILLER_42_134
*1305 FILLER_42_14
*1306 FILLER_42_146
*1307 FILLER_42_163
*1308 FILLER_42_170
*1309 FILLER_42_209
*1310 FILLER_42_21
*1311 FILLER_42_213
*1312 FILLER_42_242
*1313 FILLER_42_249
*1314 FILLER_42_256
*1315 FILLER_42_261
*1316 FILLER_42_268
*1317 FILLER_42_275
*1318 FILLER_42_28
*1319 FILLER_42_286
*1320 FILLER_42_293
*1321 FILLER_42_297
*1322 FILLER_42_326
*1323 FILLER_42_333
*1324 FILLER_42_337
*1325 FILLER_42_35
*1326 FILLER_42_406
*1327 FILLER_42_413
*1328 FILLER_42_42
*1329 FILLER_42_425
*1330 FILLER_42_436
*1331 FILLER_42_462
*1332 FILLER_42_464
*1333 FILLER_42_475
*1334 FILLER_42_482
*1335 FILLER_42_484
*1336 FILLER_42_561
*1337 FILLER_42_568
*1338 FILLER_42_575
*1339 FILLER_42_582
*1340 FILLER_42_589
*1341 FILLER_42_596
*1342 FILLER_42_603
*1343 FILLER_42_610
*1344 FILLER_42_617
*1345 FILLER_42_624
*1346 FILLER_42_631
*1347 FILLER_42_638
*1348 FILLER_42_645
*1349 FILLER_42_652
*1350 FILLER_42_659
*1351 FILLER_42_666
*1352 FILLER_42_686
*1353 FILLER_42_693
*1354 FILLER_42_7
*1355 FILLER_42_700
*1356 FILLER_42_707
*1357 FILLER_42_711
*1358 FILLER_42_726
*1359 FILLER_42_733
*1360 FILLER_42_740
*1361 FILLER_42_747
*1362 FILLER_42_754
*1363 FILLER_42_76
*1364 FILLER_42_761
*1365 FILLER_42_768
*1366 FILLER_42_775
*1367 FILLER_42_782
*1368 FILLER_42_789
*1369 FILLER_42_796
*1370 FILLER_42_803
*1371 FILLER_42_810
*1372 FILLER_42_817
*1373 FILLER_42_824
*1374 FILLER_42_83
*1375 FILLER_42_831
*1376 FILLER_42_838
*1377 FILLER_42_845
*1378 FILLER_42_852
*1379 FILLER_42_859
*1380 FILLER_42_861
*1381 FILLER_42_95
*1382 FILLER_43_0
*1383 FILLER_43_105
*1384 FILLER_43_112
*1385 FILLER_43_119
*1386 FILLER_43_126
*1387 FILLER_43_133
*1388 FILLER_43_137
*1389 FILLER_43_14
*1390 FILLER_43_166
*1391 FILLER_43_168
*1392 FILLER_43_179
*1393 FILLER_43_186
*1394 FILLER_43_193
*1395 FILLER_43_200
*1396 FILLER_43_207
*1397 FILLER_43_21
*1398 FILLER_43_231
*1399 FILLER_43_272
*1400 FILLER_43_28
*1401 FILLER_43_303
*1402 FILLER_43_35
*1403 FILLER_43_354
*1404 FILLER_43_415
*1405 FILLER_43_42
*1406 FILLER_43_422
*1407 FILLER_43_426
*1408 FILLER_43_454
*1409 FILLER_43_49
*1410 FILLER_43_545
*1411 FILLER_43_552
*1412 FILLER_43_559
*1413 FILLER_43_56
*1414 FILLER_43_566
*1415 FILLER_43_573
*1416 FILLER_43_580
*1417 FILLER_43_587
*1418 FILLER_43_594
*1419 FILLER_43_601
*1420 FILLER_43_608
*1421 FILLER_43_615
*1422 FILLER_43_622
*1423 FILLER_43_629
*1424 FILLER_43_63
*1425 FILLER_43_636
*1426 FILLER_43_643
*1427 FILLER_43_650
*1428 FILLER_43_657
*1429 FILLER_43_664
*1430 FILLER_43_671
*1431 FILLER_43_678
*1432 FILLER_43_685
*1433 FILLER_43_692
*1434 FILLER_43_699
*1435 FILLER_43_7
*1436 FILLER_43_70
*1437 FILLER_43_706
*1438 FILLER_43_713
*1439 FILLER_43_720
*1440 FILLER_43_727
*1441 FILLER_43_734
*1442 FILLER_43_741
*1443 FILLER_43_748
*1444 FILLER_43_755
*1445 FILLER_43_762
*1446 FILLER_43_769
*1447 FILLER_43_77
*1448 FILLER_43_776
*1449 FILLER_43_783
*1450 FILLER_43_790
*1451 FILLER_43_797
*1452 FILLER_43_804
*1453 FILLER_43_811
*1454 FILLER_43_818
*1455 FILLER_43_825
*1456 FILLER_43_832
*1457 FILLER_43_839
*1458 FILLER_43_84
*1459 FILLER_43_853
*1460 FILLER_43_860
*1461 FILLER_43_91
*1462 FILLER_43_98
*1463 FILLER_44_0
*1464 FILLER_44_105
*1465 FILLER_44_112
*1466 FILLER_44_119
*1467 FILLER_44_126
*1468 FILLER_44_133
*1469 FILLER_44_14
*1470 FILLER_44_140
*1471 FILLER_44_208
*1472 FILLER_44_21
*1473 FILLER_44_236
*1474 FILLER_44_243
*1475 FILLER_44_250
*1476 FILLER_44_257
*1477 FILLER_44_264
*1478 FILLER_44_271
*1479 FILLER_44_278
*1480 FILLER_44_28
*1481 FILLER_44_285
*1482 FILLER_44_292
*1483 FILLER_44_294
*1484 FILLER_44_305
*1485 FILLER_44_312
*1486 FILLER_44_319
*1487 FILLER_44_326
*1488 FILLER_44_35
*1489 FILLER_44_357
*1490 FILLER_44_364
*1491 FILLER_44_371
*1492 FILLER_44_401
*1493 FILLER_44_408
*1494 FILLER_44_415
*1495 FILLER_44_42
*1496 FILLER_44_422
*1497 FILLER_44_429
*1498 FILLER_44_436
*1499 FILLER_44_443
*1500 FILLER_44_450
*1501 FILLER_44_457
*1502 FILLER_44_464
*1503 FILLER_44_470
*1504 FILLER_44_477
*1505 FILLER_44_484
*1506 FILLER_44_49
*1507 FILLER_44_491
*1508 FILLER_44_498
*1509 FILLER_44_505
*1510 FILLER_44_539
*1511 FILLER_44_546
*1512 FILLER_44_553
*1513 FILLER_44_56
*1514 FILLER_44_560
*1515 FILLER_44_567
*1516 FILLER_44_574
*1517 FILLER_44_581
*1518 FILLER_44_588
*1519 FILLER_44_595
*1520 FILLER_44_602
*1521 FILLER_44_609
*1522 FILLER_44_616
*1523 FILLER_44_623
*1524 FILLER_44_63
*1525 FILLER_44_630
*1526 FILLER_44_637
*1527 FILLER_44_644
*1528 FILLER_44_651
*1529 FILLER_44_658
*1530 FILLER_44_665
*1531 FILLER_44_672
*1532 FILLER_44_679
*1533 FILLER_44_686
*1534 FILLER_44_693
*1535 FILLER_44_7
*1536 FILLER_44_70
*1537 FILLER_44_700
*1538 FILLER_44_707
*1539 FILLER_44_714
*1540 FILLER_44_721
*1541 FILLER_44_728
*1542 FILLER_44_735
*1543 FILLER_44_742
*1544 FILLER_44_749
*1545 FILLER_44_756
*1546 FILLER_44_763
*1547 FILLER_44_77
*1548 FILLER_44_770
*1549 FILLER_44_777
*1550 FILLER_44_784
*1551 FILLER_44_791
*1552 FILLER_44_798
*1553 FILLER_44_805
*1554 FILLER_44_812
*1555 FILLER_44_819
*1556 FILLER_44_826
*1557 FILLER_44_833
*1558 FILLER_44_84
*1559 FILLER_44_91
*1560 FILLER_44_98
*1561 FILLER_45_0
*1562 FILLER_45_105
*1563 FILLER_45_112
*1564 FILLER_45_119
*1565 FILLER_45_126
*1566 FILLER_45_133
*1567 FILLER_45_14
*1568 FILLER_45_140
*1569 FILLER_45_147
*1570 FILLER_45_149
*1571 FILLER_45_154
*1572 FILLER_45_161
*1573 FILLER_45_168
*1574 FILLER_45_175
*1575 FILLER_45_182
*1576 FILLER_45_189
*1577 FILLER_45_196
*1578 FILLER_45_203
*1579 FILLER_45_21
*1580 FILLER_45_210
*1581 FILLER_45_217
*1582 FILLER_45_224
*1583 FILLER_45_231
*1584 FILLER_45_238
*1585 FILLER_45_245
*1586 FILLER_45_252
*1587 FILLER_45_259
*1588 FILLER_45_266
*1589 FILLER_45_273
*1590 FILLER_45_28
*1591 FILLER_45_280
*1592 FILLER_45_287
*1593 FILLER_45_294
*1594 FILLER_45_301
*1595 FILLER_45_308
*1596 FILLER_45_315
*1597 FILLER_45_322
*1598 FILLER_45_329
*1599 FILLER_45_340
*1600 FILLER_45_35
*1601 FILLER_45_354
*1602 FILLER_45_361
*1603 FILLER_45_368
*1604 FILLER_45_375
*1605 FILLER_45_382
*1606 FILLER_45_389
*1607 FILLER_45_396
*1608 FILLER_45_403
*1609 FILLER_45_410
*1610 FILLER_45_417
*1611 FILLER_45_42
*1612 FILLER_45_424
*1613 FILLER_45_431
*1614 FILLER_45_438
*1615 FILLER_45_445
*1616 FILLER_45_452
*1617 FILLER_45_459
*1618 FILLER_45_466
*1619 FILLER_45_473
*1620 FILLER_45_480
*1621 FILLER_45_487
*1622 FILLER_45_49
*1623 FILLER_45_494
*1624 FILLER_45_501
*1625 FILLER_45_508
*1626 FILLER_45_515
*1627 FILLER_45_519
*1628 FILLER_45_526
*1629 FILLER_45_533
*1630 FILLER_45_540
*1631 FILLER_45_547
*1632 FILLER_45_554
*1633 FILLER_45_56
*1634 FILLER_45_561
*1635 FILLER_45_568
*1636 FILLER_45_575
*1637 FILLER_45_582
*1638 FILLER_45_589
*1639 FILLER_45_596
*1640 FILLER_45_603
*1641 FILLER_45_610
*1642 FILLER_45_617
*1643 FILLER_45_624
*1644 FILLER_45_63
*1645 FILLER_45_631
*1646 FILLER_45_638
*1647 FILLER_45_645
*1648 FILLER_45_652
*1649 FILLER_45_659
*1650 FILLER_45_666
*1651 FILLER_45_673