*SPEF "ieee 1481-1999"
*DESIGN "heichips25_template"
*DATE "08:49:42 Friday February 20, 2026"
*VENDOR "The OpenROAD Project"
*PROGRAM "OpenROAD"
*VERSION "dfc4f595dfb2e1c346492ff1f0274abb28725acf"
*DESIGN_FLOW "NAME_SCOPE LOCAL" "PIN_CAP NONE"
*DIVIDER /
*DELIMITER :
*BUS_DELIMITER []
*T_UNIT 1 NS
*C_UNIT 1 PF
*R_UNIT 1 OHM
*L_UNIT 1 HENRY

*NAME_MAP
*3 clk
*4 ena
*5 rst_n
*6 ui_in[0]
*7 ui_in[1]
*8 ui_in[2]
*9 ui_in[3]
*10 ui_in[4]
*11 ui_in[5]
*12 ui_in[6]
*13 ui_in[7]
*14 uio_in[0]
*15 uio_in[1]
*16 uio_in[2]
*17 uio_in[3]
*18 uio_in[4]
*19 uio_in[5]
*20 uio_in[6]
*21 uio_in[7]
*22 net26
*23 net27
*24 net28
*25 net29
*26 net30
*27 net31
*28 net32
*29 net33
*30 uio_out[0]
*31 uio_out[1]
*32 uio_out[2]
*33 uio_out[3]
*34 uio_out[4]
*35 uio_out[5]
*36 uio_out[6]
*37 uio_out[7]
*38 uo_out[0]
*39 uo_out[1]
*40 uo_out[2]
*41 uo_out[3]
*42 uo_out[4]
*43 uo_out[5]
*44 uo_out[6]
*45 uo_out[7]
*46 _00_
*47 _01_
*48 _02_
*49 _03_
*50 _04_
*51 _05_
*52 _06_
*53 _07_
*54 _08_
*55 _09_
*56 _10_
*57 _11_
*58 _12_
*59 _13_
*60 _14_
*61 _15_
*62 _16_
*63 _17_
*64 _18_
*65 _19_
*66 _20_
*67 _21_
*68 _22_
*69 clknet_0_clk
*70 clknet_1_0__leaf_clk
*71 clknet_1_1__leaf_clk
*72 net
*73 net1
*74 net10
*75 net11
*76 net12
*77 net13
*78 net14
*79 net15
*80 net16
*81 net17
*82 net18
*83 net19
*84 net2
*85 net20
*86 net21
*87 net22
*88 net23
*89 net24
*90 net25
*91 net3
*92 net34
*93 net35
*94 net36
*95 net37
*96 net38
*97 net39
*98 net4
*99 net40
*100 net41
*101 net42
*102 net43
*103 net44
*104 net45
*105 net46
*106 net47
*107 net48
*108 net5
*109 net6
*110 net7
*111 net8
*112 net9
*113 FILLER_0_0
*114 FILLER_0_1001
*115 FILLER_0_1008
*116 FILLER_0_1015
*117 FILLER_0_1022
*118 FILLER_0_105
*119 FILLER_0_112
*120 FILLER_0_119
*121 FILLER_0_126
*122 FILLER_0_133
*123 FILLER_0_14
*124 FILLER_0_140
*125 FILLER_0_147
*126 FILLER_0_154
*127 FILLER_0_161
*128 FILLER_0_168
*129 FILLER_0_175
*130 FILLER_0_182
*131 FILLER_0_189
*132 FILLER_0_196
*133 FILLER_0_203
*134 FILLER_0_21
*135 FILLER_0_210
*136 FILLER_0_217
*137 FILLER_0_224
*138 FILLER_0_231
*139 FILLER_0_238
*140 FILLER_0_245
*141 FILLER_0_252
*142 FILLER_0_259
*143 FILLER_0_266
*144 FILLER_0_273
*145 FILLER_0_28
*146 FILLER_0_280
*147 FILLER_0_287
*148 FILLER_0_294
*149 FILLER_0_301
*150 FILLER_0_308
*151 FILLER_0_315
*152 FILLER_0_322
*153 FILLER_0_329
*154 FILLER_0_336
*155 FILLER_0_343
*156 FILLER_0_35
*157 FILLER_0_350
*158 FILLER_0_357
*159 FILLER_0_364
*160 FILLER_0_371
*161 FILLER_0_378
*162 FILLER_0_385
*163 FILLER_0_392
*164 FILLER_0_399
*165 FILLER_0_406
*166 FILLER_0_413
*167 FILLER_0_42
*168 FILLER_0_420
*169 FILLER_0_427
*170 FILLER_0_434
*171 FILLER_0_441
*172 FILLER_0_448
*173 FILLER_0_455
*174 FILLER_0_462
*175 FILLER_0_469
*176 FILLER_0_476
*177 FILLER_0_483
*178 FILLER_0_49
*179 FILLER_0_490
*180 FILLER_0_497
*181 FILLER_0_504
*182 FILLER_0_511
*183 FILLER_0_518
*184 FILLER_0_525
*185 FILLER_0_532
*186 FILLER_0_539
*187 FILLER_0_546
*188 FILLER_0_553
*189 FILLER_0_56
*190 FILLER_0_560
*191 FILLER_0_567
*192 FILLER_0_574
*193 FILLER_0_581
*194 FILLER_0_588
*195 FILLER_0_595
*196 FILLER_0_602
*197 FILLER_0_609
*198 FILLER_0_616
*199 FILLER_0_623
*200 FILLER_0_63
*201 FILLER_0_630
*202 FILLER_0_637
*203 FILLER_0_644
*204 FILLER_0_651
*205 FILLER_0_658
*206 FILLER_0_665
*207 FILLER_0_672
*208 FILLER_0_679
*209 FILLER_0_686
*210 FILLER_0_693
*211 FILLER_0_7
*212 FILLER_0_70
*213 FILLER_0_700
*214 FILLER_0_707
*215 FILLER_0_714
*216 FILLER_0_721
*217 FILLER_0_728
*218 FILLER_0_735
*219 FILLER_0_742
*220 FILLER_0_749
*221 FILLER_0_756
*222 FILLER_0_763
*223 FILLER_0_77
*224 FILLER_0_770
*225 FILLER_0_777
*226 FILLER_0_784
*227 FILLER_0_791
*228 FILLER_0_798
*229 FILLER_0_805
*230 FILLER_0_812
*231 FILLER_0_819
*232 FILLER_0_826
*233 FILLER_0_833
*234 FILLER_0_84
*235 FILLER_0_840
*236 FILLER_0_847
*237 FILLER_0_854
*238 FILLER_0_861
*239 FILLER_0_868
*240 FILLER_0_875
*241 FILLER_0_882
*242 FILLER_0_889
*243 FILLER_0_896
*244 FILLER_0_903
*245 FILLER_0_91
*246 FILLER_0_910
*247 FILLER_0_917
*248 FILLER_0_924
*249 FILLER_0_931
*250 FILLER_0_938
*251 FILLER_0_945
*252 FILLER_0_952
*253 FILLER_0_959
*254 FILLER_0_966
*255 FILLER_0_973
*256 FILLER_0_98
*257 FILLER_0_980
*258 FILLER_0_987
*259 FILLER_0_994
*260 FILLER_10_100
*261 FILLER_10_1003
*262 FILLER_10_1010
*263 FILLER_10_1017
*264 FILLER_10_1024
*265 FILLER_10_1028
*266 FILLER_10_107
*267 FILLER_10_11
*268 FILLER_10_114
*269 FILLER_10_121
*270 FILLER_10_128
*271 FILLER_10_135
*272 FILLER_10_142
*273 FILLER_10_149
*274 FILLER_10_15
*275 FILLER_10_156
*276 FILLER_10_163
*277 FILLER_10_170
*278 FILLER_10_177
*279 FILLER_10_184
*280 FILLER_10_191
*281 FILLER_10_198
*282 FILLER_10_205
*283 FILLER_10_212
*284 FILLER_10_219
*285 FILLER_10_226
*286 FILLER_10_233
*287 FILLER_10_240
*288 FILLER_10_247
*289 FILLER_10_25
*290 FILLER_10_254
*291 FILLER_10_261
*292 FILLER_10_268
*293 FILLER_10_275
*294 FILLER_10_282
*295 FILLER_10_289
*296 FILLER_10_296
*297 FILLER_10_303
*298 FILLER_10_310
*299 FILLER_10_317
*300 FILLER_10_32
*301 FILLER_10_324
*302 FILLER_10_331
*303 FILLER_10_338
*304 FILLER_10_345
*305 FILLER_10_352
*306 FILLER_10_359
*307 FILLER_10_366
*308 FILLER_10_373
*309 FILLER_10_380
*310 FILLER_10_387
*311 FILLER_10_39
*312 FILLER_10_394
*313 FILLER_10_4
*314 FILLER_10_401
*315 FILLER_10_408
*316 FILLER_10_415
*317 FILLER_10_422
*318 FILLER_10_429
*319 FILLER_10_436
*320 FILLER_10_443
*321 FILLER_10_450
*322 FILLER_10_457
*323 FILLER_10_46
*324 FILLER_10_464
*325 FILLER_10_471
*326 FILLER_10_478
*327 FILLER_10_485
*328 FILLER_10_492
*329 FILLER_10_499
*330 FILLER_10_506
*331 FILLER_10_513
*332 FILLER_10_520
*333 FILLER_10_527
*334 FILLER_10_53
*335 FILLER_10_534
*336 FILLER_10_541
*337 FILLER_10_548
*338 FILLER_10_555
*339 FILLER_10_562
*340 FILLER_10_569
*341 FILLER_10_576
*342 FILLER_10_583
*343 FILLER_10_590
*344 FILLER_10_597
*345 FILLER_10_60
*346 FILLER_10_604
*347 FILLER_10_611
*348 FILLER_10_618
*349 FILLER_10_625
*350 FILLER_10_632
*351 FILLER_10_639
*352 FILLER_10_64
*353 FILLER_10_646
*354 FILLER_10_653
*355 FILLER_10_660
*356 FILLER_10_667
*357 FILLER_10_674
*358 FILLER_10_681
*359 FILLER_10_688
*360 FILLER_10_695
*361 FILLER_10_702
*362 FILLER_10_709
*363 FILLER_10_716
*364 FILLER_10_72
*365 FILLER_10_723
*366 FILLER_10_730
*367 FILLER_10_737
*368 FILLER_10_744
*369 FILLER_10_751
*370 FILLER_10_758
*371 FILLER_10_765
*372 FILLER_10_772
*373 FILLER_10_779
*374 FILLER_10_786
*375 FILLER_10_79
*376 FILLER_10_793
*377 FILLER_10_800
*378 FILLER_10_807
*379 FILLER_10_814
*380 FILLER_10_821
*381 FILLER_10_828
*382 FILLER_10_835
*383 FILLER_10_842
*384 FILLER_10_849
*385 FILLER_10_856
*386 FILLER_10_86
*387 FILLER_10_863
*388 FILLER_10_870
*389 FILLER_10_877
*390 FILLER_10_884
*391 FILLER_10_891
*392 FILLER_10_898
*393 FILLER_10_905
*394 FILLER_10_912
*395 FILLER_10_919
*396 FILLER_10_926
*397 FILLER_10_93
*398 FILLER_10_933
*399 FILLER_10_940
*400 FILLER_10_947
*401 FILLER_10_954
*402 FILLER_10_961
*403 FILLER_10_968
*404 FILLER_10_975
*405 FILLER_10_982
*406 FILLER_10_989
*407 FILLER_10_996
*408 FILLER_11_1001
*409 FILLER_11_1008
*410 FILLER_11_1015
*411 FILLER_11_1022
*412 FILLER_11_11
*413 FILLER_11_126
*414 FILLER_11_133
*415 FILLER_11_140
*416 FILLER_11_147
*417 FILLER_11_154
*418 FILLER_11_161
*419 FILLER_11_168
*420 FILLER_11_175
*421 FILLER_11_18
*422 FILLER_11_182
*423 FILLER_11_189
*424 FILLER_11_196
*425 FILLER_11_20
*426 FILLER_11_203
*427 FILLER_11_210
*428 FILLER_11_217
*429 FILLER_11_224
*430 FILLER_11_231
*431 FILLER_11_238
*432 FILLER_11_245
*433 FILLER_11_25
*434 FILLER_11_252
*435 FILLER_11_259
*436 FILLER_11_266
*437 FILLER_11_273
*438 FILLER_11_280
*439 FILLER_11_287
*440 FILLER_11_294
*441 FILLER_11_301
*442 FILLER_11_308
*443 FILLER_11_315
*444 FILLER_11_32
*445 FILLER_11_322
*446 FILLER_11_329
*447 FILLER_11_336
*448 FILLER_11_343
*449 FILLER_11_350
*450 FILLER_11_357
*451 FILLER_11_364
*452 FILLER_11_371
*453 FILLER_11_378
*454 FILLER_11_385
*455 FILLER_11_39
*456 FILLER_11_392
*457 FILLER_11_399
*458 FILLER_11_4
*459 FILLER_11_406
*460 FILLER_11_413
*461 FILLER_11_420
*462 FILLER_11_427
*463 FILLER_11_434
*464 FILLER_11_441
*465 FILLER_11_448
*466 FILLER_11_455
*467 FILLER_11_46
*468 FILLER_11_462
*469 FILLER_11_469
*470 FILLER_11_476
*471 FILLER_11_483
*472 FILLER_11_490
*473 FILLER_11_497
*474 FILLER_11_504
*475 FILLER_11_511
*476 FILLER_11_518
*477 FILLER_11_525
*478 FILLER_11_53
*479 FILLER_11_532
*480 FILLER_11_539
*481 FILLER_11_546
*482 FILLER_11_553
*483 FILLER_11_560
*484 FILLER_11_567
*485 FILLER_11_574
*486 FILLER_11_581
*487 FILLER_11_588
*488 FILLER_11_595
*489 FILLER_11_60
*490 FILLER_11_602
*491 FILLER_11_609
*492 FILLER_11_616
*493 FILLER_11_623
*494 FILLER_11_630
*495 FILLER_11_637
*496 FILLER_11_644
*497 FILLER_11_651
*498 FILLER_11_658
*499 FILLER_11_665
*500 FILLER_11_67
*501 FILLER_11_672
*502 FILLER_11_679
*503 FILLER_11_686
*504 FILLER_11_693
*505 FILLER_11_700
*506 FILLER_11_707
*507 FILLER_11_714
*508 FILLER_11_721
*509 FILLER_11_728
*510 FILLER_11_735
*511 FILLER_11_74
*512 FILLER_11_742
*513 FILLER_11_749
*514 FILLER_11_756
*515 FILLER_11_763
*516 FILLER_11_770
*517 FILLER_11_777
*518 FILLER_11_784
*519 FILLER_11_791
*520 FILLER_11_798
*521 FILLER_11_805
*522 FILLER_11_81
*523 FILLER_11_812
*524 FILLER_11_819
*525 FILLER_11_826
*526 FILLER_11_833
*527 FILLER_11_840
*528 FILLER_11_847
*529 FILLER_11_854
*530 FILLER_11_861
*531 FILLER_11_868
*532 FILLER_11_875
*533 FILLER_11_88
*534 FILLER_11_882
*535 FILLER_11_889
*536 FILLER_11_896
*537 FILLER_11_903
*538 FILLER_11_910
*539 FILLER_11_917
*540 FILLER_11_924
*541 FILLER_11_931
*542 FILLER_11_938
*543 FILLER_11_945
*544 FILLER_11_95
*545 FILLER_11_952
*546 FILLER_11_959
*547 FILLER_11_966
*548 FILLER_11_973
*549 FILLER_11_980
*550 FILLER_11_987
*551 FILLER_11_99
*552 FILLER_11_994
*553 FILLER_12_1003
*554 FILLER_12_1010
*555 FILLER_12_1017
*556 FILLER_12_102
*557 FILLER_12_1024
*558 FILLER_12_1028
*559 FILLER_12_109
*560 FILLER_12_11
*561 FILLER_12_116
*562 FILLER_12_123
*563 FILLER_12_130
*564 FILLER_12_137
*565 FILLER_12_144
*566 FILLER_12_149
*567 FILLER_12_156
*568 FILLER_12_163
*569 FILLER_12_170
*570 FILLER_12_177
*571 FILLER_12_18
*572 FILLER_12_184
*573 FILLER_12_191
*574 FILLER_12_198
*575 FILLER_12_205
*576 FILLER_12_212
*577 FILLER_12_219
*578 FILLER_12_226
*579 FILLER_12_233
*580 FILLER_12_240
*581 FILLER_12_247
*582 FILLER_12_25
*583 FILLER_12_254
*584 FILLER_12_261
*585 FILLER_12_268
*586 FILLER_12_275
*587 FILLER_12_282
*588 FILLER_12_289
*589 FILLER_12_296
*590 FILLER_12_303
*591 FILLER_12_310
*592 FILLER_12_317
*593 FILLER_12_32
*594 FILLER_12_324
*595 FILLER_12_331
*596 FILLER_12_338
*597 FILLER_12_345
*598 FILLER_12_352
*599 FILLER_12_359
*600 FILLER_12_366
*601 FILLER_12_373
*602 FILLER_12_380
*603 FILLER_12_387
*604 FILLER_12_39
*605 FILLER_12_394
*606 FILLER_12_4
*607 FILLER_12_401
*608 FILLER_12_408
*609 FILLER_12_415
*610 FILLER_12_422
*611 FILLER_12_429
*612 FILLER_12_436
*613 FILLER_12_443
*614 FILLER_12_450
*615 FILLER_12_457
*616 FILLER_12_46
*617 FILLER_12_464
*618 FILLER_12_471
*619 FILLER_12_478
*620 FILLER_12_485
*621 FILLER_12_492
*622 FILLER_12_499
*623 FILLER_12_506
*624 FILLER_12_513
*625 FILLER_12_520
*626 FILLER_12_527
*627 FILLER_12_53
*628 FILLER_12_534
*629 FILLER_12_541
*630 FILLER_12_548
*631 FILLER_12_555
*632 FILLER_12_562
*633 FILLER_12_569
*634 FILLER_12_576
*635 FILLER_12_583
*636 FILLER_12_590
*637 FILLER_12_597
*638 FILLER_12_60
*639 FILLER_12_604
*640 FILLER_12_611
*641 FILLER_12_618
*642 FILLER_12_625
*643 FILLER_12_632
*644 FILLER_12_639
*645 FILLER_12_646
*646 FILLER_12_653
*647 FILLER_12_660
*648 FILLER_12_667
*649 FILLER_12_67
*650 FILLER_12_674
*651 FILLER_12_681
*652 FILLER_12_688
*653 FILLER_12_695
*654 FILLER_12_702
*655 FILLER_12_709
*656 FILLER_12_716
*657 FILLER_12_723
*658 FILLER_12_730
*659 FILLER_12_737
*660 FILLER_12_74
*661 FILLER_12_744
*662 FILLER_12_751
*663 FILLER_12_758
*664 FILLER_12_765
*665 FILLER_12_772
*666 FILLER_12_779
*667 FILLER_12_786
*668 FILLER_12_793
*669 FILLER_12_800
*670 FILLER_12_807
*671 FILLER_12_81
*672 FILLER_12_814
*673 FILLER_12_821
*674 FILLER_12_828
*675 FILLER_12_835
*676 FILLER_12_842
*677 FILLER_12_849
*678 FILLER_12_856
*679 FILLER_12_863
*680 FILLER_12_870
*681 FILLER_12_877
*682 FILLER_12_88
*683 FILLER_12_884
*684 FILLER_12_891
*685 FILLER_12_898
*686 FILLER_12_905
*687 FILLER_12_912
*688 FILLER_12_919
*689 FILLER_12_926
*690 FILLER_12_933
*691 FILLER_12_940
*692 FILLER_12_947
*693 FILLER_12_95
*694 FILLER_12_954
*695 FILLER_12_961
*696 FILLER_12_968
*697 FILLER_12_975
*698 FILLER_12_982
*699 FILLER_12_989
*700 FILLER_12_996
*701 FILLER_13_1000
*702 FILLER_13_1007
*703 FILLER_13_1014
*704 FILLER_13_1021
*705 FILLER_13_1028
*706 FILLER_13_106
*707 FILLER_13_11
*708 FILLER_13_113
*709 FILLER_13_120
*710 FILLER_13_127
*711 FILLER_13_134
*712 FILLER_13_138
*713 FILLER_13_167
*714 FILLER_13_174
*715 FILLER_13_18
*716 FILLER_13_181
*717 FILLER_13_188
*718 FILLER_13_195
*719 FILLER_13_202
*720 FILLER_13_209
*721 FILLER_13_216
*722 FILLER_13_223
*723 FILLER_13_230
*724 FILLER_13_237
*725 FILLER_13_244
*726 FILLER_13_25
*727 FILLER_13_251
*728 FILLER_13_258
*729 FILLER_13_265
*730 FILLER_13_272
*731 FILLER_13_279
*732 FILLER_13_286
*733 FILLER_13_293
*734 FILLER_13_300
*735 FILLER_13_307
*736 FILLER_13_314
*737 FILLER_13_32
*738 FILLER_13_321
*739 FILLER_13_328
*740 FILLER_13_335
*741 FILLER_13_342
*742 FILLER_13_349
*743 FILLER_13_356
*744 FILLER_13_363
*745 FILLER_13_370
*746 FILLER_13_377
*747 FILLER_13_384
*748 FILLER_13_39
*749 FILLER_13_391
*750 FILLER_13_398
*751 FILLER_13_4
*752 FILLER_13_405
*753 FILLER_13_412
*754 FILLER_13_419
*755 FILLER_13_426
*756 FILLER_13_433
*757 FILLER_13_440
*758 FILLER_13_447
*759 FILLER_13_454
*760 FILLER_13_46
*761 FILLER_13_461
*762 FILLER_13_468
*763 FILLER_13_475
*764 FILLER_13_482
*765 FILLER_13_489
*766 FILLER_13_496
*767 FILLER_13_503
*768 FILLER_13_510
*769 FILLER_13_517
*770 FILLER_13_524
*771 FILLER_13_53
*772 FILLER_13_531
*773 FILLER_13_538
*774 FILLER_13_545
*775 FILLER_13_552
*776 FILLER_13_559
*777 FILLER_13_566
*778 FILLER_13_573
*779 FILLER_13_580
*780 FILLER_13_587
*781 FILLER_13_594
*782 FILLER_13_60
*783 FILLER_13_601
*784 FILLER_13_608
*785 FILLER_13_615
*786 FILLER_13_622
*787 FILLER_13_629
*788 FILLER_13_636
*789 FILLER_13_643
*790 FILLER_13_650
*791 FILLER_13_657
*792 FILLER_13_664
*793 FILLER_13_67
*794 FILLER_13_671
*795 FILLER_13_678
*796 FILLER_13_685
*797 FILLER_13_692
*798 FILLER_13_699
*799 FILLER_13_706
*800 FILLER_13_713
*801 FILLER_13_720
*802 FILLER_13_727
*803 FILLER_13_734
*804 FILLER_13_74
*805 FILLER_13_741
*806 FILLER_13_748
*807 FILLER_13_755
*808 FILLER_13_762
*809 FILLER_13_769
*810 FILLER_13_776
*811 FILLER_13_783
*812 FILLER_13_790
*813 FILLER_13_797
*814 FILLER_13_804
*815 FILLER_13_81
*816 FILLER_13_811
*817 FILLER_13_818
*818 FILLER_13_825
*819 FILLER_13_832
*820 FILLER_13_839
*821 FILLER_13_846
*822 FILLER_13_853
*823 FILLER_13_860
*824 FILLER_13_867
*825 FILLER_13_874
*826 FILLER_13_88
*827 FILLER_13_881
*828 FILLER_13_888
*829 FILLER_13_895
*830 FILLER_13_902
*831 FILLER_13_909
*832 FILLER_13_916
*833 FILLER_13_923
*834 FILLER_13_930
*835 FILLER_13_937
*836 FILLER_13_944
*837 FILLER_13_951
*838 FILLER_13_958
*839 FILLER_13_965
*840 FILLER_13_972
*841 FILLER_13_979
*842 FILLER_13_986
*843 FILLER_13_99
*844 FILLER_13_993
*845 FILLER_14_1003
*846 FILLER_14_1010
*847 FILLER_14_1017
*848 FILLER_14_1024
*849 FILLER_14_1028
*850 FILLER_14_108
*851 FILLER_14_11
*852 FILLER_14_115
*853 FILLER_14_128
*854 FILLER_14_132
*855 FILLER_14_142
*856 FILLER_14_149
*857 FILLER_14_15
*858 FILLER_14_156
*859 FILLER_14_163
*860 FILLER_14_170
*861 FILLER_14_177
*862 FILLER_14_184
*863 FILLER_14_191
*864 FILLER_14_198
*865 FILLER_14_205
*866 FILLER_14_212
*867 FILLER_14_219
*868 FILLER_14_226
*869 FILLER_14_233
*870 FILLER_14_240
*871 FILLER_14_247
*872 FILLER_14_254
*873 FILLER_14_261
*874 FILLER_14_268
*875 FILLER_14_275
*876 FILLER_14_282
*877 FILLER_14_289
*878 FILLER_14_296
*879 FILLER_14_303
*880 FILLER_14_310
*881 FILLER_14_317
*882 FILLER_14_324
*883 FILLER_14_331
*884 FILLER_14_338
*885 FILLER_14_345
*886 FILLER_14_352
*887 FILLER_14_359
*888 FILLER_14_366
*889 FILLER_14_373
*890 FILLER_14_380
*891 FILLER_14_387
*892 FILLER_14_394
*893 FILLER_14_4
*894 FILLER_14_401
*895 FILLER_14_408
*896 FILLER_14_415
*897 FILLER_14_422
*898 FILLER_14_429
*899 FILLER_14_43
*900 FILLER_14_436
*901 FILLER_14_443
*902 FILLER_14_450
*903 FILLER_14_457
*904 FILLER_14_464
*905 FILLER_14_471
*906 FILLER_14_478
*907 FILLER_14_485
*908 FILLER_14_492
*909 FILLER_14_499
*910 FILLER_14_50
*911 FILLER_14_506
*912 FILLER_14_513
*913 FILLER_14_520
*914 FILLER_14_527
*915 FILLER_14_534
*916 FILLER_14_541
*917 FILLER_14_548
*918 FILLER_14_555
*919 FILLER_14_562
*920 FILLER_14_569
*921 FILLER_14_57
*922 FILLER_14_576
*923 FILLER_14_583
*924 FILLER_14_590
*925 FILLER_14_597
*926 FILLER_14_604
*927 FILLER_14_611
*928 FILLER_14_618
*929 FILLER_14_625
*930 FILLER_14_632
*931 FILLER_14_639
*932 FILLER_14_64
*933 FILLER_14_646
*934 FILLER_14_653
*935 FILLER_14_660
*936 FILLER_14_667
*937 FILLER_14_674
*938 FILLER_14_681
*939 FILLER_14_688
*940 FILLER_14_695
*941 FILLER_14_702
*942 FILLER_14_709
*943 FILLER_14_71
*944 FILLER_14_716
*945 FILLER_14_723
*946 FILLER_14_730
*947 FILLER_14_737
*948 FILLER_14_744
*949 FILLER_14_751
*950 FILLER_14_758
*951 FILLER_14_765
*952 FILLER_14_772
*953 FILLER_14_779
*954 FILLER_14_78
*955 FILLER_14_786
*956 FILLER_14_793
*957 FILLER_14_800
*958 FILLER_14_807
*959 FILLER_14_814
*960 FILLER_14_821
*961 FILLER_14_828
*962 FILLER_14_835
*963 FILLER_14_842
*964 FILLER_14_849
*965 FILLER_14_856
*966 FILLER_14_863
*967 FILLER_14_870
*968 FILLER_14_877
*969 FILLER_14_884
*970 FILLER_14_891
*971 FILLER_14_898
*972 FILLER_14_90
*973 FILLER_14_905
*974 FILLER_14_912
*975 FILLER_14_919
*976 FILLER_14_926
*977 FILLER_14_933
*978 FILLER_14_940
*979 FILLER_14_947
*980 FILLER_14_954
*981 FILLER_14_961
*982 FILLER_14_968
*983 FILLER_14_975
*984 FILLER_14_982
*985 FILLER_14_989
*986 FILLER_14_996
*987 FILLER_15_1002
*988 FILLER_15_1009
*989 FILLER_15_1016
*990 FILLER_15_1023
*991 FILLER_15_1027
*992 FILLER_15_11
*993 FILLER_15_120
*994 FILLER_15_127
*995 FILLER_15_134
*996 FILLER_15_141
*997 FILLER_15_148
*998 FILLER_15_155
*999 FILLER_15_162
*1000 FILLER_15_169
*1001 FILLER_15_176
*1002 FILLER_15_18
*1003 FILLER_15_183
*1004 FILLER_15_190
*1005 FILLER_15_197
*1006 FILLER_15_204
*1007 FILLER_15_211
*1008 FILLER_15_218
*1009 FILLER_15_225
*1010 FILLER_15_232
*1011 FILLER_15_239
*1012 FILLER_15_246
*1013 FILLER_15_25
*1014 FILLER_15_253
*1015 FILLER_15_260
*1016 FILLER_15_267
*1017 FILLER_15_274
*1018 FILLER_15_281
*1019 FILLER_15_288
*1020 FILLER_15_295
*1021 FILLER_15_302
*1022 FILLER_15_309
*1023 FILLER_15_316
*1024 FILLER_15_32
*1025 FILLER_15_323
*1026 FILLER_15_330
*1027 FILLER_15_337
*1028 FILLER_15_344
*1029 FILLER_15_351
*1030 FILLER_15_358
*1031 FILLER_15_365
*1032 FILLER_15_372
*1033 FILLER_15_379
*1034 FILLER_15_386
*1035 FILLER_15_39
*1036 FILLER_15_393
*1037 FILLER_15_4
*1038 FILLER_15_400
*1039 FILLER_15_407
*1040 FILLER_15_414
*1041 FILLER_15_421
*1042 FILLER_15_428
*1043 FILLER_15_435
*1044 FILLER_15_442
*1045 FILLER_15_449
*1046 FILLER_15_456
*1047 FILLER_15_46
*1048 FILLER_15_463
*1049 FILLER_15_470
*1050 FILLER_15_477
*1051 FILLER_15_484
*1052 FILLER_15_491
*1053 FILLER_15_498
*1054 FILLER_15_505
*1055 FILLER_15_512
*1056 FILLER_15_519
*1057 FILLER_15_526
*1058 FILLER_15_53
*1059 FILLER_15_533
*1060 FILLER_15_540
*1061 FILLER_15_547
*1062 FILLER_15_554
*1063 FILLER_15_561
*1064 FILLER_15_568
*1065 FILLER_15_575
*1066 FILLER_15_582
*1067 FILLER_15_589
*1068 FILLER_15_596
*1069 FILLER_15_60
*1070 FILLER_15_603
*1071 FILLER_15_610
*1072 FILLER_15_617
*1073 FILLER_15_624
*1074 FILLER_15_631
*1075 FILLER_15_638
*1076 FILLER_15_645
*1077 FILLER_15_652
*1078 FILLER_15_659
*1079 FILLER_15_666
*1080 FILLER_15_67
*1081 FILLER_15_673
*1082 FILLER_15_680
*1083 FILLER_15_687
*1084 FILLER_15_694
*1085 FILLER_15_701
*1086 FILLER_15_708
*1087 FILLER_15_715
*1088 FILLER_15_722
*1089 FILLER_15_729
*1090 FILLER_15_736
*1091 FILLER_15_74
*1092 FILLER_15_743
*1093 FILLER_15_750
*1094 FILLER_15_757
*1095 FILLER_15_764
*1096 FILLER_15_771
*1097 FILLER_15_778
*1098 FILLER_15_785
*1099 FILLER_15_792
*1100 FILLER_15_799
*1101 FILLER_15_806
*1102 FILLER_15_81
*1103 FILLER_15_813
*1104 FILLER_15_820
*1105 FILLER_15_827
*1106 FILLER_15_834
*1107 FILLER_15_841
*1108 FILLER_15_848
*1109 FILLER_15_855
*1110 FILLER_15_862
*1111 FILLER_15_869
*1112 FILLER_15_876
*1113 FILLER_15_88
*1114 FILLER_15_883
*1115 FILLER_15_890
*1116 FILLER_15_897
*1117 FILLER_15_904
*1118 FILLER_15_911
*1119 FILLER_15_918
*1120 FILLER_15_925
*1121 FILLER_15_932
*1122 FILLER_15_939
*1123 FILLER_15_946
*1124 FILLER_15_953
*1125 FILLER_15_960
*1126 FILLER_15_967
*1127 FILLER_15_974
*1128 FILLER_15_981
*1129 FILLER_15_988
*1130 FILLER_15_995
*1131 FILLER_16_1000
*1132 FILLER_16_1007
*1133 FILLER_16_1014
*1134 FILLER_16_1021
*1135 FILLER_16_1028
*1136 FILLER_16_104
*1137 FILLER_16_11
*1138 FILLER_16_111
*1139 FILLER_16_118
*1140 FILLER_16_125
*1141 FILLER_16_132
*1142 FILLER_16_139
*1143 FILLER_16_146
*1144 FILLER_16_153
*1145 FILLER_16_160
*1146 FILLER_16_167
*1147 FILLER_16_174
*1148 FILLER_16_18
*1149 FILLER_16_181
*1150 FILLER_16_188
*1151 FILLER_16_195
*1152 FILLER_16_202
*1153 FILLER_16_209
*1154 FILLER_16_216
*1155 FILLER_16_22
*1156 FILLER_16_223
*1157 FILLER_16_230
*1158 FILLER_16_237
*1159 FILLER_16_244
*1160 FILLER_16_251
*1161 FILLER_16_258
*1162 FILLER_16_265
*1163 FILLER_16_272
*1164 FILLER_16_279
*1165 FILLER_16_286
*1166 FILLER_16_293
*1167 FILLER_16_300
*1168 FILLER_16_307
*1169 FILLER_16_314
*1170 FILLER_16_321
*1171 FILLER_16_328
*1172 FILLER_16_335
*1173 FILLER_16_342
*1174 FILLER_16_349
*1175 FILLER_16_356
*1176 FILLER_16_363
*1177 FILLER_16_37
*1178 FILLER_16_370
*1179 FILLER_16_377
*1180 FILLER_16_384
*1181 FILLER_16_391
*1182 FILLER_16_398
*1183 FILLER_16_4
*1184 FILLER_16_405
*1185 FILLER_16_412
*1186 FILLER_16_419
*1187 FILLER_16_426
*1188 FILLER_16_433
*1189 FILLER_16_44
*1190 FILLER_16_440
*1191 FILLER_16_447
*1192 FILLER_16_454
*1193 FILLER_16_461
*1194 FILLER_16_468
*1195 FILLER_16_475
*1196 FILLER_16_482
*1197 FILLER_16_489
*1198 FILLER_16_496
*1199 FILLER_16_503
*1200 FILLER_16_51
*1201 FILLER_16_510
*1202 FILLER_16_517
*1203 FILLER_16_524
*1204 FILLER_16_531
*1205 FILLER_16_538
*1206 FILLER_16_545
*1207 FILLER_16_552
*1208 FILLER_16_559
*1209 FILLER_16_566
*1210 FILLER_16_573
*1211 FILLER_16_58
*1212 FILLER_16_580
*1213 FILLER_16_587
*1214 FILLER_16_594
*1215 FILLER_16_601
*1216 FILLER_16_608
*1217 FILLER_16_615
*1218 FILLER_16_622
*1219 FILLER_16_629
*1220 FILLER_16_636
*1221 FILLER_16_643
*1222 FILLER_16_65
*1223 FILLER_16_650
*1224 FILLER_16_657
*1225 FILLER_16_664
*1226 FILLER_16_671
*1227 FILLER_16_678
*1228 FILLER_16_685
*1229 FILLER_16_692
*1230 FILLER_16_699
*1231 FILLER_16_706
*1232 FILLER_16_713
*1233 FILLER_16_72
*1234 FILLER_16_720
*1235 FILLER_16_727
*1236 FILLER_16_734
*1237 FILLER_16_741
*1238 FILLER_16_748
*1239 FILLER_16_755
*1240 FILLER_16_762
*1241 FILLER_16_769
*1242 FILLER_16_776
*1243 FILLER_16_783
*1244 FILLER_16_79
*1245 FILLER_16_790
*1246 FILLER_16_797
*1247 FILLER_16_804
*1248 FILLER_16_811
*1249 FILLER_16_818
*1250 FILLER_16_825
*1251 FILLER_16_832
*1252 FILLER_16_839
*1253 FILLER_16_846
*1254 FILLER_16_853
*1255 FILLER_16_86
*1256 FILLER_16_860
*1257 FILLER_16_867
*1258 FILLER_16_874
*1259 FILLER_16_881
*1260 FILLER_16_888
*1261 FILLER_16_895
*1262 FILLER_16_902
*1263 FILLER_16_909
*1264 FILLER_16_916
*1265 FILLER_16_923
*1266 FILLER_16_93
*1267 FILLER_16_930
*1268 FILLER_16_937
*1269 FILLER_16_944
*1270 FILLER_16_951
*1271 FILLER_16_958
*1272 FILLER_16_965
*1273 FILLER_16_97
*1274 FILLER_16_972
*1275 FILLER_16_979
*1276 FILLER_16_986
*1277 FILLER_16_993
*1278 FILLER_17_0
*1279 FILLER_17_1004
*1280 FILLER_17_1011
*1281 FILLER_17_1018
*1282 FILLER_17_1025
*1283 FILLER_17_105
*1284 FILLER_17_114
*1285 FILLER_17_121
*1286 FILLER_17_128
*1287 FILLER_17_132
*1288 FILLER_17_14
*1289 FILLER_17_143
*1290 FILLER_17_150
*1291 FILLER_17_157
*1292 FILLER_17_164
*1293 FILLER_17_171
*1294 FILLER_17_178
*1295 FILLER_17_185
*1296 FILLER_17_192
*1297 FILLER_17_199
*1298 FILLER_17_206
*1299 FILLER_17_21
*1300 FILLER_17_213
*1301 FILLER_17_220
*1302 FILLER_17_227
*1303 FILLER_17_234
*1304 FILLER_17_241
*1305 FILLER_17_248
*1306 FILLER_17_255
*1307 FILLER_17_262
*1308 FILLER_17_269
*1309 FILLER_17_276
*1310 FILLER_17_283
*1311 FILLER_17_290
*1312 FILLER_17_297
*1313 FILLER_17_304
*1314 FILLER_17_311
*1315 FILLER_17_318
*1316 FILLER_17_325
*1317 FILLER_17_332
*1318 FILLER_17_339
*1319 FILLER_17_346
*1320 FILLER_17_353
*1321 FILLER_17_360
*1322 FILLER_17_367
*1323 FILLER_17_374
*1324 FILLER_17_381
*1325 FILLER_17_388
*1326 FILLER_17_395
*1327 FILLER_17_402
*1328 FILLER_17_409
*1329 FILLER_17_416
*1330 FILLER_17_423
*1331 FILLER_17_430
*1332 FILLER_17_437
*1333 FILLER_17_444
*1334 FILLER_17_451
*1335 FILLER_17_458
*1336 FILLER_17_465
*1337 FILLER_17_472
*1338 FILLER_17_479
*1339 FILLER_17_486
*1340 FILLER_17_49
*1341 FILLER_17_493
*1342 FILLER_17_500
*1343 FILLER_17_507
*1344 FILLER_17_514
*1345 FILLER_17_521
*1346 FILLER_17_528
*1347 FILLER_17_535
*1348 FILLER_17_542
*1349 FILLER_17_549
*1350 FILLER_17_556
*1351 FILLER_17_56
*1352 FILLER_17_563
*1353 FILLER_17_570
*1354 FILLER_17_577
*1355 FILLER_17_584
*1356 FILLER_17_591
*1357 FILLER_17_598
*1358 FILLER_17_605
*1359 FILLER_17_612
*1360 FILLER_17_619
*1361 FILLER_17_626
*1362 FILLER_17_63
*1363 FILLER_17_633
*1364 FILLER_17_640
*1365 FILLER_17_647
*1366 FILLER_17_654
*1367 FILLER_17_661
*1368 FILLER_17_668
*1369 FILLER_17_675
*1370 FILLER_17_682
*1371 FILLER_17_689
*1372 FILLER_17_696
*1373 FILLER_17_7
*1374 FILLER_17_70
*1375 FILLER_17_703
*1376 FILLER_17_710
*1377 FILLER_17_717
*1378 FILLER_17_724
*1379 FILLER_17_731
*1380 FILLER_17_738
*1381 FILLER_17_745
*1382 FILLER_17_752
*1383 FILLER_17_759
*1384 FILLER_17_766
*1385 FILLER_17_77
*1386 FILLER_17_773
*1387 FILLER_17_780
*1388 FILLER_17_787
*1389 FILLER_17_794
*1390 FILLER_17_801
*1391 FILLER_17_808
*1392 FILLER_17_815
*1393 FILLER_17_822
*1394 FILLER_17_829
*1395 FILLER_17_836
*1396 FILLER_17_84
*1397 FILLER_17_843
*1398 FILLER_17_850
*1399 FILLER_17_857
*1400 FILLER_17_864
*1401 FILLER_17_871
*1402 FILLER_17_878
*1403 FILLER_17_885
*1404 FILLER_17_892
*1405 FILLER_17_899
*1406 FILLER_17_906
*1407 FILLER_17_91
*1408 FILLER_17_913
*1409 FILLER_17_920
*1410 FILLER_17_927
*1411 FILLER_17_934
*1412 FILLER_17_941
*1413 FILLER_17_948
*1414 FILLER_17_955
*1415 FILLER_17_962
*1416 FILLER_17_969
*1417 FILLER_17_976
*1418 FILLER_17_98
*1419 FILLER_17_983
*1420 FILLER_17_990
*1421 FILLER_17_997
*1422 FILLER_18_1004
*1423 FILLER_18_1011
*1424 FILLER_18_1018
*1425 FILLER_18_102
*1426 FILLER_18_1025
*1427 FILLER_18_109
*1428 FILLER_18_11
*1429 FILLER_18_116
*1430 FILLER_18_123
*1431 FILLER_18_157
*1432 FILLER_18_164
*1433 FILLER_18_171
*1434 FILLER_18_178
*1435 FILLER_18_18
*1436 FILLER_18_185
*1437 FILLER_18_192
*1438 FILLER_18_199
*1439 FILLER_18_206
*1440 FILLER_18_213
*1441 FILLER_18_220
*1442 FILLER_18_227
*1443 FILLER_18_234
*1444 FILLER_18_241
*1445 FILLER_18_248
*1446 FILLER_18_25
*1447 FILLER_18_255
*1448 FILLER_18_262
*1449 FILLER_18_269
*1450 FILLER_18_276
*1451 FILLER_18_283
*1452 FILLER_18_290
*1453 FILLER_18_297
*1454 FILLER_18_304
*1455 FILLER_18_311
*1456 FILLER_18_318
*1457 FILLER_18_32
*1458 FILLER_18_325
*1459 FILLER_18_332
*1460 FILLER_18_339
*1461 FILLER_18_346
*1462 FILLER_18_353
*1463 FILLER_18_360
*1464 FILLER_18_367
*1465 FILLER_18_374
*1466 FILLER_18_381
*1467 FILLER_18_388
*1468 FILLER_18_39
*1469 FILLER_18_395
*1470 FILLER_18_4
*1471 FILLER_18_402
*1472 FILLER_18_409
*1473 FILLER_18_416
*1474 FILLER_18_423
*1475 FILLER_18_430
*1476 FILLER_18_437
*1477 FILLER_18_444
*1478 FILLER_18_451
*1479 FILLER_18_458
*1480 FILLER_18_46
*1481 FILLER_18_465
*1482 FILLER_18_472
*1483 FILLER_18_479
*1484 FILLER_18_486
*1485 FILLER_18_493
*1486 FILLER_18_500
*1487 FILLER_18_507
*1488 FILLER_18_514
*1489 FILLER_18_521
*1490 FILLER_18_528
*1491 FILLER_18_53
*1492 FILLER_18_535
*1493 FILLER_18_542
*1494 FILLER_18_549
*1495 FILLER_18_556
*1496 FILLER_18_563
*1497 FILLER_18_570
*1498 FILLER_18_577
*1499 FILLER_18_584
*1500 FILLER_18_591
*1501 FILLER_18_598
*1502 FILLER_18_60
*1503 FILLER_18_605
*1504 FILLER_18_612
*1505 FILLER_18_619
*1506 FILLER_18_626
*1507 FILLER_18_633
*1508 FILLER_18_640
*1509 FILLER_18_647
*1510 FILLER_18_654
*1511 FILLER_18_661
*1512 FILLER_18_668
*1513 FILLER_18_67
*1514 FILLER_18_675
*1515 FILLER_18_682
*1516 FILLER_18_689
*1517 FILLER_18_696
*1518 FILLER_18_703
*1519 FILLER_18_710
*1520 FILLER_18_717
*1521 FILLER_18_724
*1522 FILLER_18_731
*1523 FILLER_18_738
*1524 FILLER_18_74
*1525 FILLER_18_745
*1526 FILLER_18_752
*1527 FILLER_18_759
*1528 FILLER_18_766
*1529 FILLER_18_773
*1530 FILLER_18_780
*1531 FILLER_18_787
*1532 FILLER_18_794
*1533 FILLER_18_801
*1534 FILLER_18_808
*1535 FILLER_18_81
*1536 FILLER_18_815
*1537 FILLER_18_822
*1538 FILLER_18_829
*1539 FILLER_18_836
*1540 FILLER_18_843
*1541 FILLER_18_850
*1542 FILLER_18_857
*1543 FILLER_18_864
*1544 FILLER_18_871
*1545 FILLER_18_878
*1546 FILLER_18_88
*1547 FILLER_18_885
*1548 FILLER_18_892
*1549 FILLER_18_899
*1550 FILLER_18_906
*1551 FILLER_18_913
*1552 FILLER_18_920
*1553 FILLER_18_927
*1554 FILLER_18_934
*1555 FILLER_18_941
*1556 FILLER_18_948
*1557 FILLER_18_95
*1558 FILLER_18_955
*1559 FILLER_18_962
*1560 FILLER_18_969
*1561 FILLER_18_976
*1562 FILLER_18_983
*1563 FILLER_18_990
*1564 FILLER_18_997
*1565 FILLER_19_1000
*1566 FILLER_19_1007
*1567 FILLER_19_1014
*1568 FILLER_19_1021
*1569 FILLER_19_1028
*1570 FILLER_19_11
*1571 FILLER_19_111
*1572 FILLER_19_118
*1573 FILLER_19_125
*1574 FILLER_19_132
*1575 FILLER_19_134
*1576 FILLER_19_139
*1577 FILLER_19_146
*1578 FILLER_19_153
*1579 FILLER_19_160
*1580 FILLER_19_167
*1581 FILLER_19_174
*1582 FILLER_19_18
*1583 FILLER_19_181
*1584 FILLER_19_188
*1585 FILLER_19_195
*1586 FILLER_19_202
*1587 FILLER_19_209
*1588 FILLER_19_216
*1589 FILLER_19_223