*SPEF "ieee 1481-1999"
*DESIGN "heichips25_internal"
*DATE "03:52:51 Sunday February 22, 2026"
*VENDOR "The OpenROAD Project"
*PROGRAM "OpenROAD"
*VERSION "dfc4f595dfb2e1c346492ff1f0274abb28725acf"
*DESIGN_FLOW "NAME_SCOPE LOCAL" "PIN_CAP NONE"
*DIVIDER /
*DELIMITER :
*BUS_DELIMITER []
*T_UNIT 1 NS
*C_UNIT 1 PF
*R_UNIT 1 OHM
*L_UNIT 1 HENRY

*NAME_MAP
*3 analog_adc
*4 analog_pin0
*5 analog_pin1
*6 clk
*7 ena
*8 rst_n
*9 ui_in[0]
*10 ui_in[1]
*11 ui_in[2]
*12 ui_in[3]
*13 ui_in[4]
*14 ui_in[5]
*15 ui_in[6]
*16 ui_in[7]
*17 uio_in[0]
*18 uio_in[1]
*19 uio_in[2]
*20 uio_in[3]
*21 uio_in[4]
*22 uio_in[5]
*23 uio_in[6]
*24 uio_in[7]
*25 net
*26 net47
*27 net48
*28 net49
*29 net50
*30 net51
*31 net52
*32 net53
*33 uio_out[0]
*34 uio_out[1]
*35 uio_out[2]
*36 uio_out[3]
*37 uio_out[4]
*38 uio_out[5]
*39 uio_out[6]
*40 uio_out[7]
*41 net54
*42 net55
*43 net56
*44 net57
*45 net58
*46 net59
*47 net60
*48 net61
*51 _000_
*52 _001_
*53 _002_
*54 _003_
*55 _004_
*56 _005_
*57 _006_
*58 _007_
*59 _008_
*60 _009_
*61 _010_
*62 _011_
*63 _012_
*64 _013_
*65 _014_
*66 _015_
*67 _016_
*68 _017_
*69 _018_
*70 _019_
*71 _020_
*72 _021_
*73 _022_
*74 _023_
*75 _024_
*76 _025_
*77 _026_
*78 _027_
*79 _028_
*80 _029_
*81 _030_
*82 _031_
*83 _032_
*84 _033_
*85 _034_
*86 _035_
*87 _036_
*88 _037_
*89 _038_
*90 _039_
*91 _040_
*92 _041_
*93 _042_
*94 _043_
*95 _044_
*96 _045_
*97 _046_
*98 _047_
*99 _048_
*100 _049_
*101 _050_
*102 _051_
*103 _052_
*104 _053_
*105 _054_
*106 _055_
*107 _056_
*108 _057_
*109 _058_
*110 _059_
*111 _060_
*112 _061_
*113 _062_
*114 _063_
*115 _064_
*116 _065_
*117 _066_
*118 _067_
*119 _068_
*120 _069_
*121 _070_
*122 _071_
*123 _072_
*124 _073_
*125 _074_
*126 _075_
*127 _076_
*128 _077_
*129 _078_
*130 _079_
*131 _080_
*132 _081_
*133 _082_
*134 _083_
*135 _084_
*136 _085_
*137 _086_
*138 _087_
*139 _088_
*140 _089_
*141 _090_
*142 _091_
*143 _092_
*144 _093_
*145 _094_
*146 _095_
*147 _096_
*148 _097_
*149 _098_
*150 _099_
*151 _100_
*152 _101_
*153 _102_
*154 _103_
*155 _104_
*156 _105_
*157 _106_
*158 _107_
*159 _108_
*160 _109_
*161 _110_
*162 _111_
*163 _112_
*164 _113_
*165 _114_
*166 _115_
*167 _116_
*168 _117_
*169 _118_
*170 _119_
*171 _120_
*172 _121_
*173 _122_
*174 _123_
*175 _124_
*176 _125_
*177 _126_
*178 _127_
*179 adc_data\[0\]
*180 adc_data\[1\]
*181 adc_data\[2\]
*182 adc_data\[3\]
*183 adc_data\[4\]
*184 adc_data\[5\]
*185 adc_data\[6\]
*186 adc_data\[7\]
*187 adc_ready
*188 clk0_out
*189 clk1_out
*190 clk2_out
*191 clk_delayed
*192 clk_regs
*193 clknet_0_clk
*194 clknet_0_clk_regs
*195 clknet_1_0__leaf_clk
*196 clknet_1_1__leaf_clk
*197 clknet_4_0_0_clk_regs
*198 clknet_4_10_0_clk_regs
*199 clknet_4_11_0_clk_regs
*200 clknet_4_12_0_clk_regs
*201 clknet_4_13_0_clk_regs
*202 clknet_4_14_0_clk_regs
*203 clknet_4_15_0_clk_regs
*204 clknet_4_1_0_clk_regs
*205 clknet_4_2_0_clk_regs
*206 clknet_4_3_0_clk_regs
*207 clknet_4_4_0_clk_regs
*208 clknet_4_5_0_clk_regs
*209 clknet_4_6_0_clk_regs
*210 clknet_4_7_0_clk_regs
*211 clknet_4_8_0_clk_regs
*212 clknet_4_9_0_clk_regs
*213 data\[0\]
*214 data\[10\]
*215 data\[11\]
*216 data\[12\]
*217 data\[13\]
*218 data\[14\]
*219 data\[15\]
*220 data\[16\]
*221 data\[17\]
*222 data\[18\]
*223 data\[19\]
*224 data\[1\]
*225 data\[20\]
*226 data\[21\]
*227 data\[22\]
*228 data\[23\]
*229 data\[24\]
*230 data\[25\]
*231 data\[26\]
*232 data\[27\]
*233 data\[28\]
*234 data\[29\]
*235 data\[2\]
*236 data\[30\]
*237 data\[31\]
*238 data\[32\]
*239 data\[33\]
*240 data\[34\]
*241 data\[35\]
*242 data\[36\]
*243 data\[37\]
*244 data\[38\]
*245 data\[39\]
*246 data\[3\]
*247 data\[40\]
*248 data\[41\]
*249 data\[42\]
*250 data\[43\]
*251 data\[44\]
*252 data\[45\]
*253 data\[46\]
*254 data\[47\]
*255 data\[48\]
*256 data\[49\]
*257 data\[4\]
*258 data\[50\]
*259 data\[51\]
*260 data\[52\]
*261 data\[53\]
*262 data\[54\]
*263 data\[55\]
*264 data\[56\]
*265 data\[57\]
*266 data\[58\]
*267 data\[59\]
*268 data\[5\]
*269 data\[60\]
*270 data\[61\]
*271 data\[62\]
*272 data\[63\]
*273 data\[64\]
*274 data\[65\]
*275 data\[66\]
*276 data\[67\]
*277 data\[68\]
*278 data\[69\]
*279 data\[6\]
*280 data\[70\]
*281 data\[71\]
*282 data\[72\]
*283 data\[73\]
*284 data\[74\]
*285 data\[75\]
*286 data\[76\]
*287 data\[77\]
*288 data\[78\]
*289 data\[79\]
*290 data\[7\]
*291 data\[80\]
*292 data\[81\]
*293 data\[82\]
*294 data\[83\]
*295 data\[84\]
*296 data\[85\]
*297 data\[8\]
*298 data\[9\]
*299 delaynet_0_clk
*300 net1
*301 net10
*302 net11
*303 net12
*304 net13
*305 net14
*306 net15
*307 net16
*308 net17
*309 net18
*310 net19
*311 net2
*312 net20
*313 net21
*314 net22
*315 net23
*316 net24
*317 net25
*318 net26
*319 net27
*320 net28
*321 net29
*322 net3
*323 net30
*324 net31
*325 net32
*326 net33
*327 net34
*328 net35
*329 net36
*330 net37
*331 net38
*332 net39
*333 net4
*334 net40
*335 net41
*336 net42
*337 net43
*338 net44
*339 net45
*340 net46
*341 net5
*342 net6
*343 net7
*344 net8
*345 net9
*346 osc_out
*347 stable
*348 u_custom_cells\.u_latch0\.D
*349 u_custom_cells\.u_latch0\.Q
*350 u_shift_reg\.bit_count\[0\]
*351 u_shift_reg\.bit_count\[1\]
*352 u_shift_reg\.bit_count\[2\]
*353 u_shift_reg\.bit_count\[3\]
*354 u_shift_reg\.bit_count\[4\]
*355 u_shift_reg\.bit_count\[5\]
*356 u_shift_reg\.bit_count\[6\]
*357 u_shift_reg\.locked
*358 ANTENNA_1
*359 ANTENNA_2
*360 ANTENNA_3
*361 ANTENNA_4
*362 ANTENNA_5
*363 FILLER_0_0
*364 FILLER_0_105
*365 FILLER_0_112
*366 FILLER_0_119
*367 FILLER_0_126
*368 FILLER_0_133
*369 FILLER_0_14
*370 FILLER_0_140
*371 FILLER_0_147
*372 FILLER_0_154
*373 FILLER_0_161
*374 FILLER_0_168
*375 FILLER_0_175
*376 FILLER_0_182
*377 FILLER_0_189
*378 FILLER_0_196
*379 FILLER_0_203
*380 FILLER_0_21
*381 FILLER_0_210
*382 FILLER_0_217
*383 FILLER_0_224
*384 FILLER_0_231
*385 FILLER_0_238
*386 FILLER_0_245
*387 FILLER_0_252
*388 FILLER_0_259
*389 FILLER_0_271
*390 FILLER_0_278
*391 FILLER_0_28
*392 FILLER_0_285
*393 FILLER_0_313
*394 FILLER_0_320
*395 FILLER_0_331
*396 FILLER_0_338
*397 FILLER_0_345
*398 FILLER_0_347
*399 FILLER_0_35
*400 FILLER_0_358
*401 FILLER_0_369
*402 FILLER_0_373
*403 FILLER_0_384
*404 FILLER_0_391
*405 FILLER_0_395
*406 FILLER_0_42
*407 FILLER_0_424
*408 FILLER_0_431
*409 FILLER_0_442
*410 FILLER_0_449
*411 FILLER_0_453
*412 FILLER_0_465
*413 FILLER_0_472
*414 FILLER_0_479
*415 FILLER_0_486
*416 FILLER_0_49
*417 FILLER_0_493
*418 FILLER_0_500
*419 FILLER_0_507
*420 FILLER_0_514
*421 FILLER_0_521
*422 FILLER_0_538
*423 FILLER_0_545
*424 FILLER_0_552
*425 FILLER_0_559
*426 FILLER_0_56
*427 FILLER_0_566
*428 FILLER_0_573
*429 FILLER_0_580
*430 FILLER_0_587
*431 FILLER_0_594
*432 FILLER_0_601
*433 FILLER_0_608
*434 FILLER_0_615
*435 FILLER_0_622
*436 FILLER_0_629
*437 FILLER_0_63
*438 FILLER_0_636
*439 FILLER_0_643
*440 FILLER_0_650
*441 FILLER_0_657
*442 FILLER_0_664
*443 FILLER_0_671
*444 FILLER_0_678
*445 FILLER_0_685
*446 FILLER_0_692
*447 FILLER_0_699
*448 FILLER_0_7
*449 FILLER_0_70
*450 FILLER_0_706
*451 FILLER_0_713
*452 FILLER_0_720
*453 FILLER_0_727
*454 FILLER_0_734
*455 FILLER_0_741
*456 FILLER_0_748
*457 FILLER_0_755
*458 FILLER_0_762
*459 FILLER_0_769
*460 FILLER_0_77
*461 FILLER_0_776
*462 FILLER_0_783
*463 FILLER_0_790
*464 FILLER_0_797
*465 FILLER_0_804
*466 FILLER_0_811
*467 FILLER_0_818
*468 FILLER_0_825
*469 FILLER_0_832
*470 FILLER_0_834
*471 FILLER_0_84
*472 FILLER_0_91
*473 FILLER_0_98
*474 FILLER_10_11
*475 FILLER_10_18
*476 FILLER_10_25
*477 FILLER_10_32
*478 FILLER_10_39
*479 FILLER_10_4
*480 FILLER_10_46
*481 FILLER_10_53
*482 FILLER_10_55
*483 FILLER_10_765
*484 FILLER_10_772
*485 FILLER_10_779
*486 FILLER_10_786
*487 FILLER_10_793
*488 FILLER_10_800
*489 FILLER_10_807
*490 FILLER_10_814
*491 FILLER_10_821
*492 FILLER_10_828
*493 FILLER_11_11
*494 FILLER_11_18
*495 FILLER_11_25
*496 FILLER_11_32
*497 FILLER_11_4
*498 FILLER_11_44
*499 FILLER_11_51
*500 FILLER_11_55
*501 FILLER_11_765
*502 FILLER_11_772
*503 FILLER_11_779
*504 FILLER_11_786
*505 FILLER_11_793
*506 FILLER_11_800
*507 FILLER_11_807
*508 FILLER_11_814
*509 FILLER_11_821
*510 FILLER_11_828
*511 FILLER_12_11
*512 FILLER_12_18
*513 FILLER_12_25
*514 FILLER_12_4
*515 FILLER_12_765
*516 FILLER_12_772
*517 FILLER_12_779
*518 FILLER_12_786
*519 FILLER_12_793
*520 FILLER_12_800
*521 FILLER_12_807
*522 FILLER_12_814
*523 FILLER_12_821
*524 FILLER_12_828
*525 FILLER_13_4
*526 FILLER_13_47
*527 FILLER_13_54
*528 FILLER_13_765
*529 FILLER_13_772
*530 FILLER_13_779
*531 FILLER_13_786
*532 FILLER_13_793
*533 FILLER_13_8
*534 FILLER_13_800
*535 FILLER_13_807
*536 FILLER_13_814
*537 FILLER_13_821
*538 FILLER_13_828
*539 FILLER_14_11
*540 FILLER_14_18
*541 FILLER_14_25
*542 FILLER_14_32
*543 FILLER_14_4
*544 FILLER_14_43
*545 FILLER_14_50
*546 FILLER_14_54
*547 FILLER_14_765
*548 FILLER_14_772
*549 FILLER_14_779
*550 FILLER_14_786
*551 FILLER_14_793
*552 FILLER_14_800
*553 FILLER_14_807
*554 FILLER_14_814
*555 FILLER_14_821
*556 FILLER_14_828
*557 FILLER_15_18
*558 FILLER_15_25
*559 FILLER_15_765
*560 FILLER_15_772
*561 FILLER_15_779
*562 FILLER_15_786
*563 FILLER_15_793
*564 FILLER_15_800
*565 FILLER_15_807
*566 FILLER_15_814
*567 FILLER_15_821
*568 FILLER_15_828
*569 FILLER_16_0
*570 FILLER_16_765
*571 FILLER_16_772
*572 FILLER_16_779
*573 FILLER_16_786
*574 FILLER_16_793
*575 FILLER_16_800
*576 FILLER_16_807
*577 FILLER_16_814
*578 FILLER_16_821
*579 FILLER_16_828
*580 FILLER_17_0
*581 FILLER_17_18
*582 FILLER_17_25
*583 FILLER_17_29
*584 FILLER_17_40
*585 FILLER_17_47
*586 FILLER_17_54
*587 FILLER_17_7
*588 FILLER_17_765
*589 FILLER_17_772
*590 FILLER_17_779
*591 FILLER_17_786
*592 FILLER_17_793
*593 FILLER_17_800
*594 FILLER_17_807
*595 FILLER_17_814
*596 FILLER_17_821
*597 FILLER_17_828
*598 FILLER_18_4
*599 FILLER_18_47
*600 FILLER_18_54
*601 FILLER_18_765
*602 FILLER_18_772
*603 FILLER_18_779
*604 FILLER_18_786
*605 FILLER_18_793
*606 FILLER_18_8
*607 FILLER_18_800
*608 FILLER_18_807
*609 FILLER_18_814
*610 FILLER_18_821
*611 FILLER_18_828
*612 FILLER_19_18
*613 FILLER_19_25
*614 FILLER_19_4
*615 FILLER_19_765
*616 FILLER_19_772
*617 FILLER_19_779
*618 FILLER_19_786
*619 FILLER_19_793
*620 FILLER_19_800
*621 FILLER_19_807
*622 FILLER_19_814
*623 FILLER_19_821
*624 FILLER_19_828
*625 FILLER_1_0
*626 FILLER_1_105
*627 FILLER_1_112
*628 FILLER_1_119
*629 FILLER_1_126
*630 FILLER_1_133
*631 FILLER_1_14
*632 FILLER_1_140
*633 FILLER_1_147
*634 FILLER_1_154
*635 FILLER_1_161
*636 FILLER_1_168
*637 FILLER_1_175
*638 FILLER_1_182
*639 FILLER_1_189
*640 FILLER_1_196
*641 FILLER_1_203
*642 FILLER_1_21
*643 FILLER_1_210
*644 FILLER_1_217
*645 FILLER_1_28
*646 FILLER_1_293
*647 FILLER_1_35
*648 FILLER_1_405
*649 FILLER_1_42
*650 FILLER_1_49
*651 FILLER_1_527
*652 FILLER_1_534
*653 FILLER_1_56
*654 FILLER_1_562
*655 FILLER_1_569
*656 FILLER_1_576
*657 FILLER_1_583
*658 FILLER_1_590
*659 FILLER_1_597
*660 FILLER_1_604
*661 FILLER_1_611
*662 FILLER_1_618
*663 FILLER_1_625
*664 FILLER_1_63
*665 FILLER_1_632
*666 FILLER_1_639
*667 FILLER_1_646
*668 FILLER_1_653
*669 FILLER_1_660
*670 FILLER_1_667
*671 FILLER_1_674
*672 FILLER_1_681
*673 FILLER_1_688
*674 FILLER_1_695
*675 FILLER_1_7
*676 FILLER_1_70
*677 FILLER_1_702
*678 FILLER_1_709
*679 FILLER_1_716
*680 FILLER_1_723
*681 FILLER_1_730
*682 FILLER_1_737
*683 FILLER_1_744
*684 FILLER_1_751
*685 FILLER_1_758
*686 FILLER_1_765
*687 FILLER_1_77
*688 FILLER_1_772
*689 FILLER_1_779
*690 FILLER_1_786
*691 FILLER_1_793
*692 FILLER_1_800
*693 FILLER_1_807
*694 FILLER_1_814
*695 FILLER_1_821
*696 FILLER_1_828
*697 FILLER_1_84
*698 FILLER_1_91
*699 FILLER_1_98
*700 FILLER_20_4
*701 FILLER_20_47
*702 FILLER_20_54
*703 FILLER_20_765
*704 FILLER_20_772
*705 FILLER_20_779
*706 FILLER_20_786
*707 FILLER_20_793
*708 FILLER_20_8
*709 FILLER_20_800
*710 FILLER_20_807
*711 FILLER_20_814
*712 FILLER_20_821
*713 FILLER_20_828
*714 FILLER_21_15
*715 FILLER_21_22
*716 FILLER_21_765
*717 FILLER_21_772
*718 FILLER_21_779
*719 FILLER_21_786
*720 FILLER_21_793
*721 FILLER_21_797
*722 FILLER_21_8
*723 FILLER_22_0
*724 FILLER_22_42
*725 FILLER_22_49
*726 FILLER_22_765
*727 FILLER_22_772
*728 FILLER_22_779
*729 FILLER_22_786
*730 FILLER_22_793
*731 FILLER_22_800
*732 FILLER_22_807
*733 FILLER_22_814
*734 FILLER_22_821
*735 FILLER_22_828
*736 FILLER_23_11
*737 FILLER_23_21
*738 FILLER_23_28
*739 FILLER_23_4
*740 FILLER_23_765
*741 FILLER_23_772
*742 FILLER_23_779
*743 FILLER_23_786
*744 FILLER_23_793
*745 FILLER_23_800
*746 FILLER_23_807
*747 FILLER_23_814
*748 FILLER_23_821
*749 FILLER_23_828
*750 FILLER_24_23
*751 FILLER_24_4
*752 FILLER_24_48
*753 FILLER_24_55
*754 FILLER_24_765
*755 FILLER_24_772
*756 FILLER_24_779
*757 FILLER_24_786
*758 FILLER_24_793
*759 FILLER_24_8
*760 FILLER_24_800
*761 FILLER_24_807
*762 FILLER_24_814
*763 FILLER_24_821
*764 FILLER_24_828
*765 FILLER_25_1022
*766 FILLER_25_4
*767 FILLER_25_43
*768 FILLER_25_50
*769 FILLER_25_54
*770 FILLER_25_765
*771 FILLER_25_772
*772 FILLER_25_779
*773 FILLER_25_786
*774 FILLER_25_793
*775 FILLER_25_800
*776 FILLER_25_807
*777 FILLER_25_814
*778 FILLER_25_821
*779 FILLER_25_828
*780 FILLER_25_835
*781 FILLER_25_842
*782 FILLER_25_849
*783 FILLER_25_856
*784 FILLER_25_863
*785 FILLER_25_870
*786 FILLER_25_877
*787 FILLER_25_884
*788 FILLER_25_891
*789 FILLER_25_898
*790 FILLER_25_905
*791 FILLER_25_912
*792 FILLER_25_919
*793 FILLER_25_926
*794 FILLER_25_933
*795 FILLER_25_940
*796 FILLER_25_947
*797 FILLER_25_954
*798 FILLER_25_961
*799 FILLER_25_968
*800 FILLER_25_975
*801 FILLER_25_982
*802 FILLER_25_989
*803 FILLER_25_996
*804 FILLER_26_1000
*805 FILLER_26_1007
*806 FILLER_26_1014
*807 FILLER_26_1021
*808 FILLER_26_1028
*809 FILLER_26_11
*810 FILLER_26_13
*811 FILLER_26_4
*812 FILLER_26_51
*813 FILLER_26_55
*814 FILLER_26_765
*815 FILLER_26_772
*816 FILLER_26_779
*817 FILLER_26_786
*818 FILLER_26_793
*819 FILLER_26_800
*820 FILLER_26_807
*821 FILLER_26_814
*822 FILLER_26_821
*823 FILLER_26_828
*824 FILLER_26_835
*825 FILLER_26_842
*826 FILLER_26_853
*827 FILLER_26_860
*828 FILLER_26_867
*829 FILLER_26_874
*830 FILLER_26_881
*831 FILLER_26_888
*832 FILLER_26_895
*833 FILLER_26_902
*834 FILLER_26_909
*835 FILLER_26_916
*836 FILLER_26_923
*837 FILLER_26_930
*838 FILLER_26_937
*839 FILLER_26_944
*840 FILLER_26_951
*841 FILLER_26_958
*842 FILLER_26_965
*843 FILLER_26_972
*844 FILLER_26_979
*845 FILLER_26_986
*846 FILLER_26_993
*847 FILLER_27_0
*848 FILLER_27_1001
*849 FILLER_27_1008
*850 FILLER_27_1015
*851 FILLER_27_1022
*852 FILLER_27_14
*853 FILLER_27_21
*854 FILLER_27_28
*855 FILLER_27_7
*856 FILLER_27_765
*857 FILLER_27_772
*858 FILLER_27_779
*859 FILLER_27_786
*860 FILLER_27_793
*861 FILLER_27_800
*862 FILLER_27_807
*863 FILLER_27_814
*864 FILLER_27_821
*865 FILLER_27_828
*866 FILLER_27_835
*867 FILLER_27_842
*868 FILLER_27_849
*869 FILLER_27_853
*870 FILLER_27_882
*871 FILLER_27_889
*872 FILLER_27_896
*873 FILLER_27_903
*874 FILLER_27_910
*875 FILLER_27_917
*876 FILLER_27_924
*877 FILLER_27_931
*878 FILLER_27_938
*879 FILLER_27_945
*880 FILLER_27_952
*881 FILLER_27_959
*882 FILLER_27_966
*883 FILLER_27_973
*884 FILLER_27_980
*885 FILLER_27_987
*886 FILLER_27_994
*887 FILLER_28_11
*888 FILLER_28_18
*889 FILLER_28_25
*890 FILLER_28_29
*891 FILLER_28_4
*892 FILLER_28_41
*893 FILLER_28_48
*894 FILLER_28_55
*895 FILLER_28_765
*896 FILLER_28_772
*897 FILLER_28_779
*898 FILLER_28_786
*899 FILLER_28_793
*900 FILLER_28_800
*901 FILLER_28_807
*902 FILLER_28_814
*903 FILLER_28_821
*904 FILLER_28_828
*905 FILLER_28_835
*906 FILLER_28_842
*907 FILLER_28_849
*908 FILLER_28_856
*909 FILLER_28_860
*910 FILLER_29_11
*911 FILLER_29_18
*912 FILLER_29_25
*913 FILLER_29_4
*914 FILLER_29_778
*915 FILLER_29_785
*916 FILLER_29_792
*917 FILLER_29_799
*918 FILLER_29_806
*919 FILLER_29_813
*920 FILLER_29_820
*921 FILLER_29_827
*922 FILLER_29_834
*923 FILLER_29_841
*924 FILLER_29_848
*925 FILLER_29_855
*926 FILLER_2_102
*927 FILLER_2_109
*928 FILLER_2_11
*929 FILLER_2_116
*930 FILLER_2_123
*931 FILLER_2_130
*932 FILLER_2_137
*933 FILLER_2_144
*934 FILLER_2_151
*935 FILLER_2_158
*936 FILLER_2_165
*937 FILLER_2_172
*938 FILLER_2_179
*939 FILLER_2_18
*940 FILLER_2_186
*941 FILLER_2_193
*942 FILLER_2_200
*943 FILLER_2_207
*944 FILLER_2_214
*945 FILLER_2_216
*946 FILLER_2_248
*947 FILLER_2_25
*948 FILLER_2_255
*949 FILLER_2_262
*950 FILLER_2_269
*951 FILLER_2_276
*952 FILLER_2_280
*953 FILLER_2_292
*954 FILLER_2_296
*955 FILLER_2_308
*956 FILLER_2_315
*957 FILLER_2_32
*958 FILLER_2_322
*959 FILLER_2_336
*960 FILLER_2_343
*961 FILLER_2_350
*962 FILLER_2_354
*963 FILLER_2_360
*964 FILLER_2_367
*965 FILLER_2_374
*966 FILLER_2_381
*967 FILLER_2_388
*968 FILLER_2_39
*969 FILLER_2_4
*970 FILLER_2_405
*971 FILLER_2_419
*972 FILLER_2_426
*973 FILLER_2_433
*974 FILLER_2_438
*975 FILLER_2_445
*976 FILLER_2_452
*977 FILLER_2_459
*978 FILLER_2_46
*979 FILLER_2_466
*980 FILLER_2_490
*981 FILLER_2_497
*982 FILLER_2_53
*983 FILLER_2_541
*984 FILLER_2_548
*985 FILLER_2_555
*986 FILLER_2_562
*987 FILLER_2_569
*988 FILLER_2_576
*989 FILLER_2_583
*990 FILLER_2_590
*991 FILLER_2_597
*992 FILLER_2_60
*993 FILLER_2_604
*994 FILLER_2_611
*995 FILLER_2_618
*996 FILLER_2_625
*997 FILLER_2_632
*998 FILLER_2_639
*999 FILLER_2_646
*1000 FILLER_2_653
*1001 FILLER_2_660
*1002 FILLER_2_667
*1003 FILLER_2_67
*1004 FILLER_2_674
*1005 FILLER_2_681
*1006 FILLER_2_688
*1007 FILLER_2_695
*1008 FILLER_2_702
*1009 FILLER_2_709
*1010 FILLER_2_716
*1011 FILLER_2_723
*1012 FILLER_2_730
*1013 FILLER_2_737
*1014 FILLER_2_74
*1015 FILLER_2_744
*1016 FILLER_2_751
*1017 FILLER_2_758
*1018 FILLER_2_765
*1019 FILLER_2_772
*1020 FILLER_2_779
*1021 FILLER_2_786
*1022 FILLER_2_793
*1023 FILLER_2_800
*1024 FILLER_2_807
*1025 FILLER_2_81
*1026 FILLER_2_814
*1027 FILLER_2_821
*1028 FILLER_2_828
*1029 FILLER_2_88
*1030 FILLER_2_95
*1031 FILLER_30_11
*1032 FILLER_30_18
*1033 FILLER_30_25
*1034 FILLER_30_32
*1035 FILLER_30_39
*1036 FILLER_30_4
*1037 FILLER_30_46
*1038 FILLER_30_53
*1039 FILLER_30_55
*1040 FILLER_30_778
*1041 FILLER_30_785
*1042 FILLER_30_792
*1043 FILLER_30_799
*1044 FILLER_30_806
*1045 FILLER_30_813
*1046 FILLER_30_820
*1047 FILLER_30_827
*1048 FILLER_30_834
*1049 FILLER_30_841
*1050 FILLER_30_848
*1051 FILLER_30_855
*1052 FILLER_31_11
*1053 FILLER_31_18
*1054 FILLER_31_25
*1055 FILLER_31_32
*1056 FILLER_31_36
*1057 FILLER_31_4
*1058 FILLER_31_48
*1059 FILLER_31_55
*1060 FILLER_31_768
*1061 FILLER_31_775
*1062 FILLER_31_782
*1063 FILLER_31_789
*1064 FILLER_31_796
*1065 FILLER_31_803
*1066 FILLER_31_810
*1067 FILLER_31_817
*1068 FILLER_31_824
*1069 FILLER_31_831
*1070 FILLER_31_859
*1071 FILLER_31_861
*1072 FILLER_32_11
*1073 FILLER_32_18
*1074 FILLER_32_25
*1075 FILLER_32_4
*1076 FILLER_32_765
*1077 FILLER_32_772
*1078 FILLER_32_779
*1079 FILLER_32_786
*1080 FILLER_32_793
*1081 FILLER_32_800
*1082 FILLER_32_807
*1083 FILLER_32_814
*1084 FILLER_32_821
*1085 FILLER_33_0
*1086 FILLER_33_14
*1087 FILLER_33_21
*1088 FILLER_33_28
*1089 FILLER_33_35
*1090 FILLER_33_42
*1091 FILLER_33_49
*1092 FILLER_33_7
*1093 FILLER_33_765
*1094 FILLER_33_772
*1095 FILLER_33_779
*1096 FILLER_33_786
*1097 FILLER_33_793
*1098 FILLER_33_800
*1099 FILLER_33_807
*1100 FILLER_33_814
*1101 FILLER_33_821
*1102 FILLER_33_838
*1103 FILLER_33_849
*1104 FILLER_33_856
*1105 FILLER_33_860
*1106 FILLER_34_0
*1107 FILLER_34_14
*1108 FILLER_34_21
*1109 FILLER_34_28
*1110 FILLER_34_35
*1111 FILLER_34_49
*1112 FILLER_34_7
*1113 FILLER_34_765
*1114 FILLER_34_772
*1115 FILLER_34_779
*1116 FILLER_34_786
*1117 FILLER_34_793
*1118 FILLER_34_800
*1119 FILLER_34_807
*1120 FILLER_34_814
*1121 FILLER_34_821
*1122 FILLER_34_828
*1123 FILLER_34_830
*1124 FILLER_34_858
*1125 FILLER_35_0
*1126 FILLER_35_14
*1127 FILLER_35_21
*1128 FILLER_35_28
*1129 FILLER_35_7
*1130 FILLER_35_765
*1131 FILLER_35_772
*1132 FILLER_35_779
*1133 FILLER_35_786
*1134 FILLER_35_793
*1135 FILLER_35_800
*1136 FILLER_35_807
*1137 FILLER_35_814
*1138 FILLER_35_821
*1139 FILLER_35_828
*1140 FILLER_36_0
*1141 FILLER_36_14
*1142 FILLER_36_21
*1143 FILLER_36_28
*1144 FILLER_36_35
*1145 FILLER_36_42
*1146 FILLER_36_49
*1147 FILLER_36_7
*1148 FILLER_36_790
*1149 FILLER_36_797
*1150 FILLER_36_804
*1151 FILLER_36_811
*1152 FILLER_36_818
*1153 FILLER_36_856
*1154 FILLER_36_860
*1155 FILLER_37_0
*1156 FILLER_37_14
*1157 FILLER_37_21
*1158 FILLER_37_28
*1159 FILLER_37_35
*1160 FILLER_37_42
*1161 FILLER_37_49
*1162 FILLER_37_7
*1163 FILLER_37_765
*1164 FILLER_37_772
*1165 FILLER_37_779
*1166 FILLER_37_786
*1167 FILLER_37_793
*1168 FILLER_37_800
*1169 FILLER_37_807
*1170 FILLER_37_814
*1171 FILLER_37_821
*1172 FILLER_37_825
*1173 FILLER_37_846
*1174 FILLER_37_853
*1175 FILLER_37_860
*1176 FILLER_38_0
*1177 FILLER_38_14
*1178 FILLER_38_21
*1179 FILLER_38_28
*1180 FILLER_38_35
*1181 FILLER_38_42
*1182 FILLER_38_49
*1183 FILLER_38_7
*1184 FILLER_38_765
*1185 FILLER_38_772
*1186 FILLER_38_779
*1187 FILLER_38_786
*1188 FILLER_38_793
*1189 FILLER_38_800
*1190 FILLER_38_807
*1191 FILLER_38_814
*1192 FILLER_38_816
*1193 FILLER_38_854
*1194 FILLER_38_861
*1195 FILLER_39_0
*1196 FILLER_39_14
*1197 FILLER_39_21
*1198 FILLER_39_28
*1199 FILLER_39_35
*1200 FILLER_39_49
*1201 FILLER_39_7
*1202 FILLER_39_765
*1203 FILLER_39_772
*1204 FILLER_39_779
*1205 FILLER_39_786
*1206 FILLER_39_793
*1207 FILLER_39_800
*1208 FILLER_39_807
*1209 FILLER_39_814
*1210 FILLER_39_821
*1211 FILLER_39_825
*1212 FILLER_39_830
*1213 FILLER_39_834
*1214 FILLER_3_102
*1215 FILLER_3_109
*1216 FILLER_3_11
*1217 FILLER_3_116
*1218 FILLER_3_123
*1219 FILLER_3_130
*1220 FILLER_3_137
*1221 FILLER_3_144
*1222 FILLER_3_151
*1223 FILLER_3_158
*1224 FILLER_3_165
*1225 FILLER_3_179
*1226 FILLER_3_18
*1227 FILLER_3_186
*1228 FILLER_3_193
*1229 FILLER_3_200
*1230 FILLER_3_202
*1231 FILLER_3_213
*1232 FILLER_3_245
*1233 FILLER_3_25
*1234 FILLER_3_252
*1235 FILLER_3_259
*1236 FILLER_3_293
*1237 FILLER_3_300
*1238 FILLER_3_32
*1239 FILLER_3_328
*1240 FILLER_3_334
*1241 FILLER_3_341
*1242 FILLER_3_348
*1243 FILLER_3_355
*1244 FILLER_3_362
*1245 FILLER_3_369
*1246 FILLER_3_376
*1247 FILLER_3_384
*1248 FILLER_3_39
*1249 FILLER_3_391
*1250 FILLER_3_398
*1251 FILLER_3_4
*1252 FILLER_3_405
*1253 FILLER_3_412
*1254 FILLER_3_419
*1255 FILLER_3_425
*1256 FILLER_3_432
*1257 FILLER_3_439
*1258 FILLER_3_446
*1259 FILLER_3_450
*1260 FILLER_3_46
*1261 FILLER_3_468
*1262 FILLER_3_502
*1263 FILLER_3_509
*1264 FILLER_3_521
*1265 FILLER_3_528
*1266 FILLER_3_53
*1267 FILLER_3_535
*1268 FILLER_3_537
*1269 FILLER_3_565
*1270 FILLER_3_572
*1271 FILLER_3_579
*1272 FILLER_3_586
*1273 FILLER_3_593
*1274 FILLER_3_60
*1275 FILLER_3_600
*1276 FILLER_3_607
*1277 FILLER_3_614
*1278 FILLER_3_621
*1279 FILLER_3_628
*1280 FILLER_3_635
*1281 FILLER_3_642
*1282 FILLER_3_649
*1283 FILLER_3_656
*1284 FILLER_3_663
*1285 FILLER_3_67
*1286 FILLER_3_670
*1287 FILLER_3_677
*1288 FILLER_3_684
*1289 FILLER_3_691
*1290 FILLER_3_698
*1291 FILLER_3_705
*1292 FILLER_3_712
*1293 FILLER_3_719
*1294 FILLER_3_726
*1295 FILLER_3_733
*1296 FILLER_3_74
*1297 FILLER_3_740
*1298 FILLER_3_747
*1299 FILLER_3_754
*1300 FILLER_3_761
*1301 FILLER_3_768
*1302 FILLER_3_775
*1303 FILLER_3_782
*1304 FILLER_3_789
*1305 FILLER_3_796
*1306 FILLER_3_803
*1307 FILLER_3_81
*1308 FILLER_3_810
*1309 FILLER_3_817
*1310 FILLER_3_824
*1311 FILLER_3_831
*1312 FILLER_3_88
*1313 FILLER_3_95
*1314 FILLER_40_0
*1315 FILLER_40_14
*1316 FILLER_40_21
*1317 FILLER_40_28
*1318 FILLER_40_7
*1319 FILLER_40_765
*1320 FILLER_40_772
*1321 FILLER_40_779
*1322 FILLER_40_786
*1323 FILLER_40_793
*1324 FILLER_40_800
*1325 FILLER_40_807
*1326 FILLER_40_814
*1327 FILLER_40_821
*1328 FILLER_40_828
*1329 FILLER_40_832
*1330 FILLER_40_843
*1331 FILLER_40_848
*1332 FILLER_40_855
*1333 FILLER_41_0
*1334 FILLER_41_14
*1335 FILLER_41_21
*1336 FILLER_41_28
*1337 FILLER_41_35
*1338 FILLER_41_7
*1339 FILLER_41_765
*1340 FILLER_41_772
*1341 FILLER_41_779
*1342 FILLER_41_786
*1343 FILLER_41_793
*1344 FILLER_41_800
*1345 FILLER_41_807
*1346 FILLER_41_814
*1347 FILLER_41_821
*1348 FILLER_41_828
*1349 FILLER_42_0
*1350 FILLER_42_14
*1351 FILLER_42_21
*1352 FILLER_42_28
*1353 FILLER_42_35
*1354 FILLER_42_42
*1355 FILLER_42_49
*1356 FILLER_42_54
*1357 FILLER_42_7
*1358 FILLER_42_765
*1359 FILLER_42_772
*1360 FILLER_42_779
*1361 FILLER_42_786
*1362 FILLER_42_793
*1363 FILLER_42_800
*1364 FILLER_42_807
*1365 FILLER_42_814
*1366 FILLER_42_821
*1367 FILLER_42_828
*1368 FILLER_42_830
*1369 FILLER_43_0
*1370 FILLER_43_14
*1371 FILLER_43_21
*1372 FILLER_43_28
*1373 FILLER_43_35
*1374 FILLER_43_42
*1375 FILLER_43_49
*1376 FILLER_43_7
*1377 FILLER_43_765
*1378 FILLER_43_772
*1379 FILLER_43_779
*1380 FILLER_43_786
*1381 FILLER_43_793
*1382 FILLER_43_800
*1383 FILLER_43_807
*1384 FILLER_43_814
*1385 FILLER_43_821
*1386 FILLER_43_843
*1387 FILLER_43_849
*1388 FILLER_43_856
*1389 FILLER_43_860
*1390 FILLER_44_0
*1391 FILLER_44_102
*1392 FILLER_44_14
*1393 FILLER_44_143
*1394 FILLER_44_150
*1395 FILLER_44_192
*1396 FILLER_44_21
*1397 FILLER_44_239
*1398 FILLER_44_277
*1399 FILLER_44_28
*1400 FILLER_44_284
*1401 FILLER_44_312
*1402 FILLER_44_316
*1403 FILLER_44_35
*1404 FILLER_44_365
*1405 FILLER_44_372
*1406 FILLER_44_379
*1407 FILLER_44_381
*1408 FILLER_44_409
*1409 FILLER_44_416
*1410 FILLER_44_42
*1411 FILLER_44_420
*1412 FILLER_44_426
*1413 FILLER_44_431
*1414 FILLER_44_436
*1415 FILLER_44_467
*1416 FILLER_44_474
*1417 FILLER_44_476
*1418 FILLER_44_49
*1419 FILLER_44_524
*1420 FILLER_44_554
*1421 FILLER_44_556
*1422 FILLER_44_56
*1423 FILLER_44_584
*1424 FILLER_44_591
*1425 FILLER_44_598
*1426 FILLER_44_605
*1427 FILLER_44_612
*1428 FILLER_44_619
*1429 FILLER_44_626
*1430 FILLER_44_63
*1431 FILLER_44_67
*1432 FILLER_44_671
*1433 FILLER_44_678
*1434 FILLER_44_692
*1435 FILLER_44_699
*1436 FILLER_44_7
*1437 FILLER_44_706
*1438 FILLER_44_713
*1439 FILLER_44_720
*1440 FILLER_44_727
*1441 FILLER_44_734
*1442 FILLER_44_741
*1443 FILLER_44_748
*1444 FILLER_44_755
*1445 FILLER_44_762
*1446 FILLER_44_769
*1447 FILLER_44_776
*1448 FILLER_44_783
*1449 FILLER_44_790
*1450 FILLER_44_797
*1451 FILLER_44_804
*1452 FILLER_44_81
*1453 FILLER_44_811
*1454 FILLER_44_818
*1455 FILLER_44_825
*1456 FILLER_44_832
*1457 FILLER_44_834
*1458 FILLER_44_88
*1459 FILLER_44_95
*1460 FILLER_45_0
*1461 FILLER_45_105
*1462 FILLER_45_112
*1463 FILLER_45_119
*1464 FILLER_45_125
*1465 FILLER_45_14
*1466 FILLER_45_182
*1467 FILLER_45_21
*1468 FILLER_45_220
*1469 FILLER_45_227
*1470 FILLER_45_234
*1471 FILLER_45_241
*1472 FILLER_45_245
*1473 FILLER_45_28
*1474 FILLER_45_331
*1475 FILLER_45_338
*1476 FILLER_45_340
*1477 FILLER_45_35
*1478 FILLER_45_381
*1479 FILLER_45_406
*1480 FILLER_45_413
*1481 FILLER_45_42
*1482 FILLER_45_445
*1483 FILLER_45_451
*1484 FILLER_45_49
*1485 FILLER_45_56
*1486 FILLER_45_574
*1487 FILLER_45_581
*1488 FILLER_45_588
*1489 FILLER_45_595
*1490 FILLER_45_602
*1491 FILLER_45_609
*1492 FILLER_45_616
*1493 FILLER_45_623
*1494 FILLER_45_63
*1495 FILLER_45_630
*1496 FILLER_45_637
*1497 FILLER_45_644
*1498 FILLER_45_651
*1499 FILLER_45_658
*1500 FILLER_45_665
*1501 FILLER_45_672
*1502 FILLER_45_679
*1503 FILLER_45_686
*1504 FILLER_45_693
*1505 FILLER_45_7
*1506 FILLER_45_70
*1507 FILLER_45_700
*1508 FILLER_45_707
*1509 FILLER_45_714
*1510 FILLER_45_721
*1511 FILLER_45_728
*1512 FILLER_45_735
*1513 FILLER_45_742
*1514 FILLER_45_749
*1515 FILLER_45_756
*1516 FILLER_45_763
*1517 FILLER_45_77
*1518 FILLER_45_770
*1519 FILLER_45_777
*1520 FILLER_45_784
*1521 FILLER_45_791
*1522 FILLER_45_798
*1523 FILLER_45_805
*1524 FILLER_45_812
*1525 FILLER_45_819
*1526 FILLER_45_826
*1527 FILLER_45_833
*1528 FILLER_45_84
*1529 FILLER_45_840
*1530 FILLER_45_847
*1531 FILLER_45_854
*1532 FILLER_45_861
*1533 FILLER_45_91
*1534 FILLER_45_98
*1535 FILLER_46_0
*1536 FILLER_46_105
*1537 FILLER_46_112
*1538 FILLER_46_119
*1539 FILLER_46_126
*1540 FILLER_46_133
*1541 FILLER_46_135
*1542 FILLER_46_14
*1543 FILLER_46_150
*1544 FILLER_46_179
*1545 FILLER_46_186
*1546 FILLER_46_197
*1547 FILLER_46_21
*1548 FILLER_46_216
*1549 FILLER_46_223
*1550 FILLER_46_254
*1551 FILLER_46_258
*1552 FILLER_46_28
*1553 FILLER_46_287
*1554 FILLER_46_294
*1555 FILLER_46_301
*1556 FILLER_46_308
*1557 FILLER_46_315
*1558 FILLER_46_35
*1559 FILLER_46_356
*1560 FILLER_46_360
*1561 FILLER_46_389
*1562 FILLER_46_403
*1563 FILLER_46_414
*1564 FILLER_46_42
*1565 FILLER_46_421
*1566 FILLER_46_423
*1567 FILLER_46_438
*1568 FILLER_46_445
*1569 FILLER_46_483
*1570 FILLER_46_487
*1571 FILLER_46_49
*1572 FILLER_46_513
*1573 FILLER_46_520
*1574 FILLER_46_527
*1575 FILLER_46_534
*1576 FILLER_46_536
*1577 FILLER_46_557
*1578 FILLER_46_56
*1579 FILLER_46_564
*1580 FILLER_46_571
*1581 FILLER_46_578
*1582 FILLER_46_585
*1583 FILLER_46_592
*1584 FILLER_46_599
*1585 FILLER_46_606
*1586 FILLER_46_613
*1587 FILLER_46_620
*1588 FILLER_46_627
*1589 FILLER_46_63
*1590 FILLER_46_634
*1591 FILLER_46_641
*1592 FILLER_46_648
*1593 FILLER_46_655
*1594 FILLER_46_662
*1595 FILLER_46_669
*1596 FILLER_46_676
*1597 FILLER_46_683
*1598 FILLER_46_690
*1599 FILLER_46_697
*1600 FILLER_46_7
*1601 FILLER_46_70
*1602 FILLER_46_704
*1603 FILLER_46_711
*1604 FILLER_46_718
*1605 FILLER_46_725
*1606 FILLER_46_732
*1607 FILLER_46_739
*1608 FILLER_46_743
*1609 FILLER_46_757
*1610 FILLER_46_764
*1611 FILLER_46_77
*1612 FILLER_46_771
*1613 FILLER_46_778
*1614 FILLER_46_785
*1615 FILLER_46_792
*1616 FILLER_46_799
*1617 FILLER_46_806
*1618 FILLER_46_813
*1619 FILLER_46_820
*1620 FILLER_46_827
*1621 FILLER_46_834
*1622 FILLER_46_84
*1623 FILLER_46_841
*1624 FILLER_46_848
*1625 FILLER_46_855
*1626 FILLER_46_91
*1627 FILLER_46_98
*1628 FILLER_47_0
*1629 FILLER_47_105
*1630 FILLER_47_112
*1631 FILLER_47_119
*1632 FILLER_47_126
*1633 FILLER_47_133
*1634 FILLER_47_14
*1635 FILLER_47_140
*1636 FILLER_47_147
*1637 FILLER_47_154
*1638 FILLER_47_161
*1639 FILLER_47_168
*1640 FILLER_47_175
*1641 FILLER_47_21
*1642 FILLER_47_214
*1643 FILLER_47_222
*1644 FILLER_47_231
*1645 FILLER_47_245
*1646 FILLER_47_252
*1647 FILLER_47_261
*1648 FILLER_47_28
*1649 FILLER_47_286
*1650 FILLER_47_293
*1651 FILLER_47_295
*1652 FILLER_47_323
*1653 FILLER_47_330
*1654 FILLER_47_35
*1655 FILLER_47_368
*1656 FILLER_47_375
*1657 FILLER_47_382
*1658 FILLER_47_389
*1659 FILLER_47_393
*1660 FILLER_47_42
*1661 FILLER_47_448
*1662 FILLER_47_455
*1663 FILLER_47_459